/*---------------------------------------------------------------------------*\
  =========                 |
  \\      /  F ield         | OpenFOAM: The Open Source CFD Toolbox
   \\    /   O peration     | Website:  https://openfoam.org
    \\  /    A nd           | Version:  7
     \\/     M anipulation  |
\*---------------------------------------------------------------------------*/
Build  : 7-1ff648926f77
Exec   : icoFoam
Date   : Jun 20 2020
Time   : 21:32:15
Host   : "jhongesell-Lenovo-G400"
PID    : 7766
I/O    : uncollated
Case   : /home/jhongesell/OpenFOAM/jhongesell-7/TW/Curso-de-CFD-con-OpenFOAM-para-Principiantes/00_Casos/01_elbow
nProcs : 1
sigFpe : Enabling floating point exception trapping (FOAM_SIGFPE).
fileModificationChecking : Monitoring run-time modified files using timeStampMaster (fileModificationSkew 10)
allowSystemOperations : Allowing user-supplied system call operations

// * * * * * * * * * * * * * * * * * * * * * * * * * * * * * * * * * * * * * //
Create time

Create mesh for time = 0

Reading transportProperties

Reading field p

Reading field U

Reading/calculating face flux field phi


Starting time loop

Time = 0.05

Courant Number mean: 0.000415941 max: 0.173205
smoothSolver:  Solving for Ux, Initial residual = 1, Final residual = 4.04857e-07, No Iterations 2
smoothSolver:  Solving for Uy, Initial residual = 1, Final residual = 2.53638e-07, No Iterations 3
DICPCG:  Solving for p, Initial residual = 1, Final residual = 0.0355357, No Iterations 62
DICPCG:  Solving for p, Initial residual = 0.0955951, Final residual = 0.00383058, No Iterations 3
DICPCG:  Solving for p, Initial residual = 0.00940091, Final residual = 0.000406619, No Iterations 45
time step continuity errors : sum local = 6.55121e-05, global = 6.11605e-07, cumulative = 6.11605e-07
DICPCG:  Solving for p, Initial residual = 0.00401801, Final residual = 0.000186008, No Iterations 48
DICPCG:  Solving for p, Initial residual = 0.00550124, Final residual = 0.000244668, No Iterations 3
DICPCG:  Solving for p, Initial residual = 0.000630694, Final residual = 6.79962e-07, No Iterations 64
time step continuity errors : sum local = 1.00267e-07, global = -2.43012e-10, cumulative = 6.11362e-07
ExecutionTime = 0.02 s  ClockTime = 0 s

Time = 0.1

Courant Number mean: 0.0788334 max: 0.393621
smoothSolver:  Solving for Ux, Initial residual = 0.415106, Final residual = 8.5524e-06, No Iterations 2
smoothSolver:  Solving for Uy, Initial residual = 0.413971, Final residual = 7.21904e-07, No Iterations 3
DICPCG:  Solving for p, Initial residual = 0.0165441, Final residual = 0.000656441, No Iterations 60
DICPCG:  Solving for p, Initial residual = 0.436774, Final residual = 0.017672, No Iterations 3
DICPCG:  Solving for p, Initial residual = 0.0661087, Final residual = 0.00288132, No Iterations 45
time step continuity errors : sum local = 6.53976e-05, global = -7.31816e-07, cumulative = -1.20454e-07
DICPCG:  Solving for p, Initial residual = 0.0739843, Final residual = 0.00318323, No Iterations 58
DICPCG:  Solving for p, Initial residual = 0.35619, Final residual = 0.0169094, No Iterations 3
DICPCG:  Solving for p, Initial residual = 0.0528499, Final residual = 9.1806e-07, No Iterations 73
time step continuity errors : sum local = 2.99764e-09, global = 3.32846e-11, cumulative = -1.2042e-07
ExecutionTime = 0.03 s  ClockTime = 0 s

Time = 0.15

Courant Number mean: 0.0788687 max: 0.382625
smoothSolver:  Solving for Ux, Initial residual = 0.0251755, Final residual = 1.01506e-06, No Iterations 2
smoothSolver:  Solving for Uy, Initial residual = 0.0143815, Final residual = 6.87547e-07, No Iterations 2
DICPCG:  Solving for p, Initial residual = 0.274178, Final residual = 0.0112032, No Iterations 4
DICPCG:  Solving for p, Initial residual = 0.0458781, Final residual = 0.00205567, No Iterations 45
DICPCG:  Solving for p, Initial residual = 0.018093, Final residual = 0.000791535, No Iterations 15
time step continuity errors : sum local = 1.66277e-06, global = -1.46073e-08, cumulative = -1.35027e-07
DICPCG:  Solving for p, Initial residual = 0.0126612, Final residual = 0.000591203, No Iterations 18
DICPCG:  Solving for p, Initial residual = 0.00357862, Final residual = 0.000139758, No Iterations 44
DICPCG:  Solving for p, Initial residual = 0.00148449, Final residual = 6.42114e-07, No Iterations 64
time step continuity errors : sum local = 1.33293e-09, global = -6.00344e-12, cumulative = -1.35033e-07
ExecutionTime = 0.03 s  ClockTime = 0 s

Time = 0.2

Courant Number mean: 0.0788808 max: 0.389115
smoothSolver:  Solving for Ux, Initial residual = 0.0185731, Final residual = 6.41676e-07, No Iterations 2
smoothSolver:  Solving for Uy, Initial residual = 0.0111637, Final residual = 6.02865e-07, No Iterations 2
DICPCG:  Solving for p, Initial residual = 0.115482, Final residual = 0.00452832, No Iterations 4
DICPCG:  Solving for p, Initial residual = 0.0156799, Final residual = 0.000661426, No Iterations 24
DICPCG:  Solving for p, Initial residual = 0.00412141, Final residual = 0.000197392, No Iterations 48
time step continuity errors : sum local = 3.45573e-07, global = 4.71594e-09, cumulative = -1.30318e-07
DICPCG:  Solving for p, Initial residual = 0.0055223, Final residual = 0.000241054, No Iterations 16
DICPCG:  Solving for p, Initial residual = 0.00141355, Final residual = 7.04337e-05, No Iterations 12
DICPCG:  Solving for p, Initial residual = 0.000262479, Final residual = 9.09084e-07, No Iterations 60
time step continuity errors : sum local = 1.61446e-09, global = 2.35633e-11, cumulative = -1.30294e-07
ExecutionTime = 0.04 s  ClockTime = 0 s

Time = 0.25

Courant Number mean: 0.0788931 max: 0.39845
smoothSolver:  Solving for Ux, Initial residual = 0.0152667, Final residual = 4.22197e-07, No Iterations 2
smoothSolver:  Solving for Uy, Initial residual = 0.00943029, Final residual = 4.85649e-07, No Iterations 2
DICPCG:  Solving for p, Initial residual = 0.0776693, Final residual = 0.00350754, No Iterations 5
DICPCG:  Solving for p, Initial residual = 0.0102391, Final residual = 0.000429467, No Iterations 23
DICPCG:  Solving for p, Initial residual = 0.00297935, Final residual = 0.000147362, No Iterations 14
time step continuity errors : sum local = 2.339e-07, global = -1.79499e-08, cumulative = -1.48244e-07
DICPCG:  Solving for p, Initial residual = 0.00345971, Final residual = 0.000141432, No Iterations 18
DICPCG:  Solving for p, Initial residual = 0.00102413, Final residual = 5.06413e-05, No Iterations 42
DICPCG:  Solving for p, Initial residual = 0.000262653, Final residual = 7.62848e-07, No Iterations 39
time step continuity errors : sum local = 1.21444e-09, global = -1.75994e-10, cumulative = -1.4842e-07
ExecutionTime = 0.04 s  ClockTime = 0 s

Time = 0.3

Courant Number mean: 0.0789036 max: 0.407789
smoothSolver:  Solving for Ux, Initial residual = 0.0129506, Final residual = 2.98768e-07, No Iterations 2
smoothSolver:  Solving for Uy, Initial residual = 0.00819305, Final residual = 3.85073e-07, No Iterations 2
DICPCG:  Solving for p, Initial residual = 0.0614198, Final residual = 0.00273297, No Iterations 4
DICPCG:  Solving for p, Initial residual = 0.00888864, Final residual = 0.000389955, No Iterations 21
DICPCG:  Solving for p, Initial residual = 0.00237481, Final residual = 0.000101017, No Iterations 49
time step continuity errors : sum local = 1.47553e-07, global = 9.03092e-09, cumulative = -1.39389e-07
DICPCG:  Solving for p, Initial residual = 0.002764, Final residual = 0.000135509, No Iterations 17
DICPCG:  Solving for p, Initial residual = 0.000752646, Final residual = 3.72038e-05, No Iterations 20
DICPCG:  Solving for p, Initial residual = 0.000163523, Final residual = 6.42846e-07, No Iterations 59
time step continuity errors : sum local = 9.35398e-10, global = 8.36125e-12, cumulative = -1.39381e-07
ExecutionTime = 0.05 s  ClockTime = 0 s

Time = 0.35

Courant Number mean: 0.0789224 max: 0.41678
smoothSolver:  Solving for Ux, Initial residual = 0.0112234, Final residual = 2.22245e-07, No Iterations 2
smoothSolver:  Solving for Uy, Initial residual = 0.00724259, Final residual = 3.32476e-07, No Iterations 2
DICPCG:  Solving for p, Initial residual = 0.051117, Final residual = 0.00200879, No Iterations 10
DICPCG:  Solving for p, Initial residual = 0.00783099, Final residual = 0.000362346, No Iterations 20
DICPCG:  Solving for p, Initial residual = 0.00197943, Final residual = 9.14781e-05, No Iterations 51
time step continuity errors : sum local = 1.22815e-07, global = 1.53588e-09, cumulative = -1.37845e-07
DICPCG:  Solving for p, Initial residual = 0.00255446, Final residual = 0.000119919, No Iterations 20
DICPCG:  Solving for p, Initial residual = 0.000701709, Final residual = 2.4446e-05, No Iterations 43
DICPCG:  Solving for p, Initial residual = 0.000199989, Final residual = 7.78116e-07, No Iterations 59
time step continuity errors : sum local = 1.03636e-09, global = -5.38807e-12, cumulative = -1.3785e-07
ExecutionTime = 0.06 s  ClockTime = 0 s

Time = 0.4

Courant Number mean: 0.0789384 max: 0.425122
smoothSolver:  Solving for Ux, Initial residual = 0.00980394, Final residual = 1.79699e-07, No Iterations 2
smoothSolver:  Solving for Uy, Initial residual = 0.00648534, Final residual = 2.78958e-07, No Iterations 2
DICPCG:  Solving for p, Initial residual = 0.0462811, Final residual = 0.00193071, No Iterations 10
DICPCG:  Solving for p, Initial residual = 0.0066691, Final residual = 0.0003207, No Iterations 21
DICPCG:  Solving for p, Initial residual = 0.00168914, Final residual = 7.61701e-05, No Iterations 49
time step continuity errors : sum local = 9.54297e-08, global = 4.7319e-09, cumulative = -1.33118e-07
DICPCG:  Solving for p, Initial residual = 0.00229203, Final residual = 0.000107146, No Iterations 20
DICPCG:  Solving for p, Initial residual = 0.000607936, Final residual = 2.39001e-05, No Iterations 44
DICPCG:  Solving for p, Initial residual = 0.000186749, Final residual = 6.27989e-07, No Iterations 61
time step continuity errors : sum local = 7.80331e-10, global = -5.11316e-12, cumulative = -1.33123e-07
ExecutionTime = 0.06 s  ClockTime = 0 s

Time = 0.45

Courant Number mean: 0.0789522 max: 0.432757
smoothSolver:  Solving for Ux, Initial residual = 0.00873629, Final residual = 1.56543e-07, No Iterations 2
smoothSolver:  Solving for Uy, Initial residual = 0.00586827, Final residual = 2.97554e-07, No Iterations 2
DICPCG:  Solving for p, Initial residual = 0.0366493, Final residual = 0.00148249, No Iterations 10
DICPCG:  Solving for p, Initial residual = 0.00555161, Final residual = 0.000243003, No Iterations 49
DICPCG:  Solving for p, Initial residual = 0.00201581, Final residual = 8.88906e-05, No Iterations 5
time step continuity errors : sum local = 1.03614e-07, global = -2.82201e-09, cumulative = -1.35945e-07
DICPCG:  Solving for p, Initial residual = 0.00160195, Final residual = 7.90357e-05, No Iterations 27
DICPCG:  Solving for p, Initial residual = 0.000490939, Final residual = 2.26191e-05, No Iterations 39
DICPCG:  Solving for p, Initial residual = 0.000183415, Final residual = 8.82815e-07, No Iterations 27
time step continuity errors : sum local = 1.03125e-09, global = -3.34702e-12, cumulative = -1.35949e-07
ExecutionTime = 0.07 s  ClockTime = 0 s

Time = 0.5

Courant Number mean: 0.0789661 max: 0.439719
smoothSolver:  Solving for Ux, Initial residual = 0.00787244, Final residual = 1.3177e-07, No Iterations 2
smoothSolver:  Solving for Uy, Initial residual = 0.00535961, Final residual = 2.16596e-07, No Iterations 2
DICPCG:  Solving for p, Initial residual = 0.0335629, Final residual = 0.00134975, No Iterations 10
DICPCG:  Solving for p, Initial residual = 0.00502728, Final residual = 0.000224771, No Iterations 49
DICPCG:  Solving for p, Initial residual = 0.00188566, Final residual = 7.04336e-05, No Iterations 12
time step continuity errors : sum local = 7.78878e-08, global = -5.16195e-09, cumulative = -1.41111e-07
DICPCG:  Solving for p, Initial residual = 0.00139416, Final residual = 6.49645e-05, No Iterations 25
DICPCG:  Solving for p, Initial residual = 0.000452168, Final residual = 1.9793e-05, No Iterations 49
DICPCG:  Solving for p, Initial residual = 0.00017201, Final residual = 9.12633e-07, No Iterations 37
time step continuity errors : sum local = 1.01124e-09, global = 2.28897e-10, cumulative = -1.40882e-07
ExecutionTime = 0.08 s  ClockTime = 0 s

Time = 0.55

Courant Number mean: 0.0789784 max: 0.446149
smoothSolver:  Solving for Ux, Initial residual = 0.00715565, Final residual = 1.15075e-07, No Iterations 2
smoothSolver:  Solving for Uy, Initial residual = 0.00492695, Final residual = 1.62957e-07, No Iterations 2
DICPCG:  Solving for p, Initial residual = 0.0300717, Final residual = 0.00130055, No Iterations 11
DICPCG:  Solving for p, Initial residual = 0.0042329, Final residual = 0.000204692, No Iterations 53
DICPCG:  Solving for p, Initial residual = 0.00168566, Final residual = 5.74646e-05, No Iterations 5
time step continuity errors : sum local = 6.07005e-08, global = -5.555e-09, cumulative = -1.46437e-07
DICPCG:  Solving for p, Initial residual = 0.00127973, Final residual = 6.15922e-05, No Iterations 26
DICPCG:  Solving for p, Initial residual = 0.000402109, Final residual = 1.73887e-05, No Iterations 39
DICPCG:  Solving for p, Initial residual = 0.000167197, Final residual = 8.24353e-07, No Iterations 27
time step continuity errors : sum local = 8.72526e-10, global = 6.30201e-11, cumulative = -1.46374e-07
ExecutionTime = 0.08 s  ClockTime = 0 s

Time = 0.6

Courant Number mean: 0.0789918 max: 0.452148
smoothSolver:  Solving for Ux, Initial residual = 0.00655904, Final residual = 1.05537e-07, No Iterations 2
smoothSolver:  Solving for Uy, Initial residual = 0.00457525, Final residual = 1.25224e-07, No Iterations 2
DICPCG:  Solving for p, Initial residual = 0.0307045, Final residual = 0.00152881, No Iterations 11
DICPCG:  Solving for p, Initial residual = 0.00449156, Final residual = 0.00021298, No Iterations 53
DICPCG:  Solving for p, Initial residual = 0.00173405, Final residual = 7.9859e-05, No Iterations 10
time step continuity errors : sum local = 8.0553e-08, global = -2.65338e-09, cumulative = -1.49027e-07
DICPCG:  Solving for p, Initial residual = 0.00140639, Final residual = 6.64544e-05, No Iterations 25
DICPCG:  Solving for p, Initial residual = 0.000409948, Final residual = 1.85418e-05, No Iterations 46
DICPCG:  Solving for p, Initial residual = 0.000161584, Final residual = 9.85311e-07, No Iterations 52
time step continuity errors : sum local = 9.95729e-10, global = 8.92064e-11, cumulative = -1.48938e-07
ExecutionTime = 0.09 s  ClockTime = 0 s

Time = 0.65

Courant Number mean: 0.0790039 max: 0.458138
smoothSolver:  Solving for Ux, Initial residual = 0.00603713, Final residual = 1.18077e-07, No Iterations 2
smoothSolver:  Solving for Uy, Initial residual = 0.00427782, Final residual = 1.16166e-07, No Iterations 2
DICPCG:  Solving for p, Initial residual = 0.0262725, Final residual = 0.00111924, No Iterations 10
DICPCG:  Solving for p, Initial residual = 0.00377823, Final residual = 0.00015878, No Iterations 51
DICPCG:  Solving for p, Initial residual = 0.00171137, Final residual = 7.77795e-05, No Iterations 11
time step continuity errors : sum local = 7.55613e-08, global = -7.49153e-09, cumulative = -1.56429e-07
DICPCG:  Solving for p, Initial residual = 0.00125544, Final residual = 5.65065e-05, No Iterations 27
DICPCG:  Solving for p, Initial residual = 0.000327393, Final residual = 1.56987e-05, No Iterations 38
DICPCG:  Solving for p, Initial residual = 0.000154564, Final residual = 9.62059e-07, No Iterations 31
time step continuity errors : sum local = 9.36103e-10, global = 2.20177e-10, cumulative = -1.56209e-07
ExecutionTime = 0.09 s  ClockTime = 0 s

Time = 0.7

Courant Number mean: 0.0790152 max: 0.463873
smoothSolver:  Solving for Ux, Initial residual = 0.0056053, Final residual = 1.12082e-07, No Iterations 2
smoothSolver:  Solving for Uy, Initial residual = 0.0040307, Final residual = 1.09539e-07, No Iterations 2
DICPCG:  Solving for p, Initial residual = 0.0214869, Final residual = 0.00106166, No Iterations 10
DICPCG:  Solving for p, Initial residual = 0.0032859, Final residual = 0.000145465, No Iterations 47
DICPCG:  Solving for p, Initial residual = 0.00156504, Final residual = 7.67011e-05, No Iterations 13
time step continuity errors : sum local = 7.193e-08, global = -5.30626e-09, cumulative = -1.61515e-07
DICPCG:  Solving for p, Initial residual = 0.00101147, Final residual = 4.33968e-05, No Iterations 56
DICPCG:  Solving for p, Initial residual = 0.000322384, Final residual = 1.51537e-05, No Iterations 7
DICPCG:  Solving for p, Initial residual = 5.09319e-05, Final residual = 9.97528e-07, No Iterations 33
time step continuity errors : sum local = 9.36929e-10, global = 1.59394e-10, cumulative = -1.61356e-07
ExecutionTime = 0.1 s  ClockTime = 0 s

Time = 0.75

Courant Number mean: 0.0790254 max: 0.469127
smoothSolver:  Solving for Ux, Initial residual = 0.00523666, Final residual = 1.06048e-07, No Iterations 2
smoothSolver:  Solving for Uy, Initial residual = 0.00381397, Final residual = 1.04617e-07, No Iterations 2
DICPCG:  Solving for p, Initial residual = 0.0194539, Final residual = 0.000778459, No Iterations 11
DICPCG:  Solving for p, Initial residual = 0.00280872, Final residual = 0.000136836, No Iterations 48
DICPCG:  Solving for p, Initial residual = 0.00139555, Final residual = 6.24244e-05, No Iterations 12
time step continuity errors : sum local = 5.66441e-08, global = -5.31096e-09, cumulative = -1.66667e-07
DICPCG:  Solving for p, Initial residual = 0.000905783, Final residual = 3.28768e-05, No Iterations 57
DICPCG:  Solving for p, Initial residual = 0.000291464, Final residual = 1.28958e-05, No Iterations 3
DICPCG:  Solving for p, Initial residual = 4.03834e-05, Final residual = 9.64479e-07, No Iterations 29
time step continuity errors : sum local = 8.76429e-10, global = 2.90192e-10, cumulative = -1.66377e-07
ExecutionTime = 0.11 s  ClockTime = 0 s

Time = 0.8

Courant Number mean: 0.0790349 max: 0.4739
smoothSolver:  Solving for Ux, Initial residual = 0.00494093, Final residual = 1.01985e-07, No Iterations 2
smoothSolver:  Solving for Uy, Initial residual = 0.00361713, Final residual = 1.00219e-07, No Iterations 2
DICPCG:  Solving for p, Initial residual = 0.0178511, Final residual = 0.00069051, No Iterations 11
DICPCG:  Solving for p, Initial residual = 0.00257022, Final residual = 0.000108054, No Iterations 44
DICPCG:  Solving for p, Initial residual = 0.00128791, Final residual = 5.95551e-05, No Iterations 5
time step continuity errors : sum local = 5.24529e-08, global = -4.09687e-09, cumulative = -1.70474e-07
DICPCG:  Solving for p, Initial residual = 0.000838736, Final residual = 3.66996e-05, No Iterations 56
DICPCG:  Solving for p, Initial residual = 0.000283739, Final residual = 1.28549e-05, No Iterations 5
DICPCG:  Solving for p, Initial residual = 3.95709e-05, Final residual = 7.26051e-07, No Iterations 29
time step continuity errors : sum local = 6.40419e-10, global = 2.07663e-10, cumulative = -1.70266e-07
ExecutionTime = 0.12 s  ClockTime = 0 s

Time = 0.85

Courant Number mean: 0.0790437 max: 0.47826
smoothSolver:  Solving for Ux, Initial residual = 0.00467476, Final residual = 9.68905e-08, No Iterations 2
smoothSolver:  Solving for Uy, Initial residual = 0.00344229, Final residual = 9.57583e-08, No Iterations 2
DICPCG:  Solving for p, Initial residual = 0.0163031, Final residual = 0.000670702, No Iterations 11
DICPCG:  Solving for p, Initial residual = 0.00229848, Final residual = 9.03649e-05, No Iterations 44
DICPCG:  Solving for p, Initial residual = 0.00124174, Final residual = 5.90818e-05, No Iterations 5
time step continuity errors : sum local = 5.06936e-08, global = -3.27113e-09, cumulative = -1.73537e-07
DICPCG:  Solving for p, Initial residual = 0.000768828, Final residual = 3.59299e-05, No Iterations 54
DICPCG:  Solving for p, Initial residual = 0.000268578, Final residual = 1.33784e-05, No Iterations 5
DICPCG:  Solving for p, Initial residual = 3.81609e-05, Final residual = 8.79002e-07, No Iterations 29
time step continuity errors : sum local = 7.55302e-10, global = 1.74519e-10, cumulative = -1.73363e-07
ExecutionTime = 0.12 s  ClockTime = 0 s

Time = 0.9

Courant Number mean: 0.0790521 max: 0.482238
smoothSolver:  Solving for Ux, Initial residual = 0.00443425, Final residual = 9.19064e-08, No Iterations 2
smoothSolver:  Solving for Uy, Initial residual = 0.00328168, Final residual = 9.20506e-08, No Iterations 2
DICPCG:  Solving for p, Initial residual = 0.0157563, Final residual = 0.000607384, No Iterations 11
DICPCG:  Solving for p, Initial residual = 0.00219955, Final residual = 0.000106773, No Iterations 43
DICPCG:  Solving for p, Initial residual = 0.00117037, Final residual = 5.47367e-05, No Iterations 5
time step continuity errors : sum local = 4.58277e-08, global = -2.10465e-09, cumulative = -1.75467e-07
DICPCG:  Solving for p, Initial residual = 0.000753216, Final residual = 3.2242e-05, No Iterations 54
DICPCG:  Solving for p, Initial residual = 0.000256219, Final residual = 1.12233e-05, No Iterations 5
DICPCG:  Solving for p, Initial residual = 3.48051e-05, Final residual = 9.98078e-07, No Iterations 28
time step continuity errors : sum local = 8.36749e-10, global = 2.15192e-10, cumulative = -1.75252e-07
ExecutionTime = 0.13 s  ClockTime = 0 s

Time = 0.95

Courant Number mean: 0.0790599 max: 0.485854
smoothSolver:  Solving for Ux, Initial residual = 0.00421443, Final residual = 8.59884e-08, No Iterations 2
smoothSolver:  Solving for Uy, Initial residual = 0.00313792, Final residual = 8.90586e-08, No Iterations 2
DICPCG:  Solving for p, Initial residual = 0.0168238, Final residual = 0.000654773, No Iterations 11
DICPCG:  Solving for p, Initial residual = 0.00231956, Final residual = 0.000107718, No Iterations 42
DICPCG:  Solving for p, Initial residual = 0.00112678, Final residual = 5.58121e-05, No Iterations 6
time step continuity errors : sum local = 4.567e-08, global = -3.8684e-10, cumulative = -1.75639e-07
DICPCG:  Solving for p, Initial residual = 0.000800097, Final residual = 3.97464e-05, No Iterations 42
DICPCG:  Solving for p, Initial residual = 0.000254874, Final residual = 1.16301e-05, No Iterations 10
DICPCG:  Solving for p, Initial residual = 4.72158e-05, Final residual = 9.68136e-07, No Iterations 51
time step continuity errors : sum local = 7.93094e-10, global = 1.05784e-11, cumulative = -1.75628e-07
ExecutionTime = 0.13 s  ClockTime = 0 s

Time = 1

Courant Number mean: 0.079067 max: 0.489132
smoothSolver:  Solving for Ux, Initial residual = 0.00402646, Final residual = 8.00818e-08, No Iterations 2
smoothSolver:  Solving for Uy, Initial residual = 0.00301074, Final residual = 8.53448e-08, No Iterations 2
DICPCG:  Solving for p, Initial residual = 0.0135605, Final residual = 0.000608661, No Iterations 11
DICPCG:  Solving for p, Initial residual = 0.00188913, Final residual = 9.11188e-05, No Iterations 42
DICPCG:  Solving for p, Initial residual = 0.00112857, Final residual = 5.26308e-05, No Iterations 6
time step continuity errors : sum local = 4.21559e-08, global = 1.28784e-10, cumulative = -1.755e-07
DICPCG:  Solving for p, Initial residual = 0.000688046, Final residual = 2.5839e-05, No Iterations 41
DICPCG:  Solving for p, Initial residual = 0.000230896, Final residual = 1.1008e-05, No Iterations 8
DICPCG:  Solving for p, Initial residual = 3.24902e-05, Final residual = 9.93092e-07, No Iterations 26
time step continuity errors : sum local = 7.96381e-10, global = 1.52933e-10, cumulative = -1.75347e-07
ExecutionTime = 0.14 s  ClockTime = 0 s

Time = 1.05

Courant Number mean: 0.0790749 max: 0.492089
smoothSolver:  Solving for Ux, Initial residual = 0.00386428, Final residual = 9.81954e-06, No Iterations 1
smoothSolver:  Solving for Uy, Initial residual = 0.00289122, Final residual = 9.93809e-06, No Iterations 1
DICPCG:  Solving for p, Initial residual = 0.014144, Final residual = 0.000677826, No Iterations 5
DICPCG:  Solving for p, Initial residual = 0.00185323, Final residual = 8.90783e-05, No Iterations 42
DICPCG:  Solving for p, Initial residual = 0.00130974, Final residual = 6.08022e-05, No Iterations 7
time step continuity errors : sum local = 4.76671e-08, global = -9.3574e-11, cumulative = -1.7544e-07
DICPCG:  Solving for p, Initial residual = 0.000791829, Final residual = 3.53445e-05, No Iterations 13
DICPCG:  Solving for p, Initial residual = 0.000200875, Final residual = 8.11557e-06, No Iterations 46
DICPCG:  Solving for p, Initial residual = 0.000109545, Final residual = 9.69421e-07, No Iterations 56
time step continuity errors : sum local = 7.60789e-10, global = -6.16659e-12, cumulative = -1.75446e-07
ExecutionTime = 0.15 s  ClockTime = 0 s

Time = 1.1

Courant Number mean: 0.079082 max: 0.494747
smoothSolver:  Solving for Ux, Initial residual = 0.00371508, Final residual = 9.31271e-06, No Iterations 1
smoothSolver:  Solving for Uy, Initial residual = 0.00278232, Final residual = 9.41764e-06, No Iterations 1
DICPCG:  Solving for p, Initial residual = 0.0121755, Final residual = 0.000549729, No Iterations 5
DICPCG:  Solving for p, Initial residual = 0.00166275, Final residual = 7.12661e-05, No Iterations 43
DICPCG:  Solving for p, Initial residual = 0.00128338, Final residual = 5.20744e-05, No Iterations 15
time step continuity errors : sum local = 4.01662e-08, global = -3.12216e-10, cumulative = -1.75759e-07
DICPCG:  Solving for p, Initial residual = 0.000716905, Final residual = 3.35853e-05, No Iterations 15
DICPCG:  Solving for p, Initial residual = 0.000165631, Final residual = 7.36574e-06, No Iterations 45
DICPCG:  Solving for p, Initial residual = 9.88897e-05, Final residual = 9.75533e-07, No Iterations 56
time step continuity errors : sum local = 7.53165e-10, global = 1.59298e-11, cumulative = -1.75743e-07
ExecutionTime = 0.15 s  ClockTime = 0 s

Time = 1.15

Courant Number mean: 0.0790885 max: 0.497134
smoothSolver:  Solving for Ux, Initial residual = 0.00357982, Final residual = 8.93294e-06, No Iterations 1
smoothSolver:  Solving for Uy, Initial residual = 0.00268156, Final residual = 8.94744e-06, No Iterations 1
DICPCG:  Solving for p, Initial residual = 0.0110726, Final residual = 0.000488912, No Iterations 5
DICPCG:  Solving for p, Initial residual = 0.00156634, Final residual = 7.28268e-05, No Iterations 45
DICPCG:  Solving for p, Initial residual = 0.00121707, Final residual = 5.21567e-05, No Iterations 15
time step continuity errors : sum local = 3.95584e-08, global = 1.31109e-10, cumulative = -1.75612e-07
DICPCG:  Solving for p, Initial residual = 0.000688003, Final residual = 3.04817e-05, No Iterations 15
DICPCG:  Solving for p, Initial residual = 0.000163764, Final residual = 6.80235e-06, No Iterations 46
DICPCG:  Solving for p, Initial residual = 9.39039e-05, Final residual = 9.52612e-07, No Iterations 50
time step continuity errors : sum local = 7.23114e-10, global = 3.15907e-11, cumulative = -1.7558e-07
ExecutionTime = 0.16 s  ClockTime = 0 s

Time = 1.2

Courant Number mean: 0.0790943 max: 0.499273
smoothSolver:  Solving for Ux, Initial residual = 0.00345494, Final residual = 8.53926e-06, No Iterations 1
smoothSolver:  Solving for Uy, Initial residual = 0.00258679, Final residual = 8.49942e-06, No Iterations 1
DICPCG:  Solving for p, Initial residual = 0.0105887, Final residual = 0.000434651, No Iterations 5
DICPCG:  Solving for p, Initial residual = 0.00151115, Final residual = 6.20534e-05, No Iterations 52
DICPCG:  Solving for p, Initial residual = 0.00117268, Final residual = 4.85157e-05, No Iterations 3
time step continuity errors : sum local = 3.62371e-08, global = -2.04743e-10, cumulative = -1.75785e-07
DICPCG:  Solving for p, Initial residual = 0.000627691, Final residual = 3.08551e-05, No Iterations 14
DICPCG:  Solving for p, Initial residual = 0.000161948, Final residual = 7.12385e-06, No Iterations 34
DICPCG:  Solving for p, Initial residual = 9.95671e-05, Final residual = 8.61851e-07, No Iterations 55
time step continuity errors : sum local = 6.44384e-10, global = 2.03392e-11, cumulative = -1.75764e-07
ExecutionTime = 0.16 s  ClockTime = 0 s

Time = 1.25

Courant Number mean: 0.0790996 max: 0.501187
smoothSolver:  Solving for Ux, Initial residual = 0.00333943, Final residual = 8.24749e-06, No Iterations 1
smoothSolver:  Solving for Uy, Initial residual = 0.00249653, Final residual = 8.12441e-06, No Iterations 1
DICPCG:  Solving for p, Initial residual = 0.0106564, Final residual = 0.000405881, No Iterations 5
DICPCG:  Solving for p, Initial residual = 0.00148117, Final residual = 6.56981e-05, No Iterations 51
DICPCG:  Solving for p, Initial residual = 0.00109712, Final residual = 5.13604e-05, No Iterations 3
time step continuity errors : sum local = 3.78474e-08, global = -1.40546e-09, cumulative = -1.7717e-07
DICPCG:  Solving for p, Initial residual = 0.000561732, Final residual = 2.47094e-05, No Iterations 42
DICPCG:  Solving for p, Initial residual = 0.000189456, Final residual = 8.86318e-06, No Iterations 18
DICPCG:  Solving for p, Initial residual = 3.33523e-05, Final residual = 9.35839e-07, No Iterations 46
time step continuity errors : sum local = 6.90245e-10, global = 2.25357e-11, cumulative = -1.77147e-07
ExecutionTime = 0.17 s  ClockTime = 0 s

Time = 1.3

Courant Number mean: 0.0791044 max: 0.502829
smoothSolver:  Solving for Ux, Initial residual = 0.00323032, Final residual = 7.99414e-06, No Iterations 1
smoothSolver:  Solving for Uy, Initial residual = 0.00241134, Final residual = 7.70224e-06, No Iterations 1
DICPCG:  Solving for p, Initial residual = 0.010452, Final residual = 0.000392092, No Iterations 5
DICPCG:  Solving for p, Initial residual = 0.00147904, Final residual = 6.6674e-05, No Iterations 53
DICPCG:  Solving for p, Initial residual = 0.00109365, Final residual = 5.26243e-05, No Iterations 4
time step continuity errors : sum local = 3.82668e-08, global = -6.29036e-10, cumulative = -1.77776e-07
DICPCG:  Solving for p, Initial residual = 0.000561452, Final residual = 2.46705e-05, No Iterations 40
DICPCG:  Solving for p, Initial residual = 0.000190607, Final residual = 8.69907e-06, No Iterations 8
DICPCG:  Solving for p, Initial residual = 2.5433e-05, Final residual = 9.43875e-07, No Iterations 26
time step continuity errors : sum local = 6.86984e-10, global = 4.55357e-11, cumulative = -1.77731e-07
ExecutionTime = 0.17 s  ClockTime = 0 s

Time = 1.35

Courant Number mean: 0.0791087 max: 0.504252
smoothSolver:  Solving for Ux, Initial residual = 0.00313157, Final residual = 7.76891e-06, No Iterations 1
smoothSolver:  Solving for Uy, Initial residual = 0.00233171, Final residual = 7.29838e-06, No Iterations 1
DICPCG:  Solving for p, Initial residual = 0.010421, Final residual = 0.000519159, No Iterations 4
DICPCG:  Solving for p, Initial residual = 0.00143119, Final residual = 6.89524e-05, No Iterations 47
DICPCG:  Solving for p, Initial residual = 0.00102696, Final residual = 5.12333e-05, No Iterations 12
time step continuity errors : sum local = 3.68414e-08, global = 9.33412e-10, cumulative = -1.76797e-07
DICPCG:  Solving for p, Initial residual = 0.000533831, Final residual = 2.2966e-05, No Iterations 49
DICPCG:  Solving for p, Initial residual = 0.000173227, Final residual = 7.86425e-06, No Iterations 7
DICPCG:  Solving for p, Initial residual = 2.08082e-05, Final residual = 8.19631e-07, No Iterations 25
time step continuity errors : sum local = 5.89806e-10, global = -2.88252e-11, cumulative = -1.76826e-07
ExecutionTime = 0.18 s  ClockTime = 0 s

Time = 1.4

Courant Number mean: 0.0791125 max: 0.505463
smoothSolver:  Solving for Ux, Initial residual = 0.00304178, Final residual = 7.5793e-06, No Iterations 1
smoothSolver:  Solving for Uy, Initial residual = 0.00225748, Final residual = 6.99643e-06, No Iterations 1
DICPCG:  Solving for p, Initial residual = 0.0114693, Final residual = 0.000515077, No Iterations 4
DICPCG:  Solving for p, Initial residual = 0.00137379, Final residual = 6.67876e-05, No Iterations 53
DICPCG:  Solving for p, Initial residual = 0.00102532, Final residual = 4.70346e-05, No Iterations 5
time step continuity errors : sum local = 3.34754e-08, global = -1.57044e-09, cumulative = -1.78397e-07
DICPCG:  Solving for p, Initial residual = 0.00053122, Final residual = 2.63836e-05, No Iterations 41
DICPCG:  Solving for p, Initial residual = 0.000170217, Final residual = 7.55455e-06, No Iterations 19
DICPCG:  Solving for p, Initial residual = 3.57863e-05, Final residual = 8.50185e-07, No Iterations 40
time step continuity errors : sum local = 6.05535e-10, global = 5.07059e-12, cumulative = -1.78392e-07
ExecutionTime = 0.18 s  ClockTime = 0 s

Time = 1.45

Courant Number mean: 0.079116 max: 0.506516
smoothSolver:  Solving for Ux, Initial residual = 0.00295976, Final residual = 7.43343e-06, No Iterations 1
smoothSolver:  Solving for Uy, Initial residual = 0.00218568, Final residual = 6.69082e-06, No Iterations 1
DICPCG:  Solving for p, Initial residual = 0.0105162, Final residual = 0.000497056, No Iterations 4
DICPCG:  Solving for p, Initial residual = 0.00133082, Final residual = 5.90872e-05, No Iterations 41
DICPCG:  Solving for p, Initial residual = 0.00105616, Final residual = 4.95875e-05, No Iterations 5
time step continuity errors : sum local = 3.49603e-08, global = 4.0055e-10, cumulative = -1.77991e-07
DICPCG:  Solving for p, Initial residual = 0.000548504, Final residual = 2.70795e-05, No Iterations 48
DICPCG:  Solving for p, Initial residual = 0.000189271, Final residual = 8.98352e-06, No Iterations 11
DICPCG:  Solving for p, Initial residual = 3.35437e-05, Final residual = 9.17621e-07, No Iterations 51
time step continuity errors : sum local = 6.47357e-10, global = -2.26628e-11, cumulative = -1.78014e-07
ExecutionTime = 0.19 s  ClockTime = 0 s

Time = 1.5

Courant Number mean: 0.0791211 max: 0.507504
smoothSolver:  Solving for Ux, Initial residual = 0.00287941, Final residual = 7.34942e-06, No Iterations 1
smoothSolver:  Solving for Uy, Initial residual = 0.00211661, Final residual = 6.45841e-06, No Iterations 1
DICPCG:  Solving for p, Initial residual = 0.00986447, Final residual = 0.000428858, No Iterations 6
DICPCG:  Solving for p, Initial residual = 0.00145941, Final residual = 6.93799e-05, No Iterations 48
DICPCG:  Solving for p, Initial residual = 0.000950021, Final residual = 4.07193e-05, No Iterations 5
time step continuity errors : sum local = 2.83062e-08, global = -1.8825e-09, cumulative = -1.79896e-07
DICPCG:  Solving for p, Initial residual = 0.000535929, Final residual = 2.46997e-05, No Iterations 19
DICPCG:  Solving for p, Initial residual = 0.000130477, Final residual = 6.19092e-06, No Iterations 50
DICPCG:  Solving for p, Initial residual = 8.13549e-05, Final residual = 8.45567e-07, No Iterations 47
time step continuity errors : sum local = 5.88217e-10, global = 3.48761e-11, cumulative = -1.79861e-07
ExecutionTime = 0.19 s  ClockTime = 0 s

Time = 1.55

Courant Number mean: 0.0791279 max: 0.508401
smoothSolver:  Solving for Ux, Initial residual = 0.00280197, Final residual = 7.34577e-06, No Iterations 1
smoothSolver:  Solving for Uy, Initial residual = 0.00206021, Final residual = 6.33638e-06, No Iterations 1
DICPCG:  Solving for p, Initial residual = 0.0087569, Final residual = 0.000367407, No Iterations 6
DICPCG:  Solving for p, Initial residual = 0.00142068, Final residual = 6.99353e-05, No Iterations 48
DICPCG:  Solving for p, Initial residual = 0.000890204, Final residual = 4.02488e-05, No Iterations 5
time step continuity errors : sum local = 2.75874e-08, global = 1.06681e-09, cumulative = -1.78795e-07
DICPCG:  Solving for p, Initial residual = 0.000479427, Final residual = 2.18346e-05, No Iterations 47
DICPCG:  Solving for p, Initial residual = 0.000177523, Final residual = 8.37562e-06, No Iterations 6
DICPCG:  Solving for p, Initial residual = 2.09903e-05, Final residual = 8.72327e-07, No Iterations 26
time step continuity errors : sum local = 5.98285e-10, global = -5.93993e-11, cumulative = -1.78854e-07
ExecutionTime = 0.2 s  ClockTime = 0 s

Time = 1.6

Courant Number mean: 0.0791362 max: 0.509186
smoothSolver:  Solving for Ux, Initial residual = 0.00272253, Final residual = 7.24687e-06, No Iterations 1
smoothSolver:  Solving for Uy, Initial residual = 0.00200654, Final residual = 6.14679e-06, No Iterations 1
DICPCG:  Solving for p, Initial residual = 0.00851069, Final residual = 0.000359954, No Iterations 6
DICPCG:  Solving for p, Initial residual = 0.00135118, Final residual = 5.7033e-05, No Iterations 45
DICPCG:  Solving for p, Initial residual = 0.000815492, Final residual = 3.32647e-05, No Iterations 15
time step continuity errors : sum local = 2.2559e-08, global = -3.37085e-10, cumulative = -1.79191e-07
DICPCG:  Solving for p, Initial residual = 0.000490394, Final residual = 2.43127e-05, No Iterations 13
DICPCG:  Solving for p, Initial residual = 0.000142362, Final residual = 6.55565e-06, No Iterations 44
DICPCG:  Solving for p, Initial residual = 6.60464e-05, Final residual = 9.17272e-07, No Iterations 24
time step continuity errors : sum local = 6.22342e-10, global = 6.534e-11, cumulative = -1.79126e-07
ExecutionTime = 0.2 s  ClockTime = 0 s

Time = 1.65

Courant Number mean: 0.079144 max: 0.509869
smoothSolver:  Solving for Ux, Initial residual = 0.00265058, Final residual = 7.09972e-06, No Iterations 1
smoothSolver:  Solving for Uy, Initial residual = 0.00195158, Final residual = 5.91355e-06, No Iterations 1
DICPCG:  Solving for p, Initial residual = 0.00707874, Final residual = 0.000275172, No Iterations 6
DICPCG:  Solving for p, Initial residual = 0.00105585, Final residual = 5.02332e-05, No Iterations 50
DICPCG:  Solving for p, Initial residual = 0.000731296, Final residual = 3.38233e-05, No Iterations 6
time step continuity errors : sum local = 2.27166e-08, global = -2.35331e-09, cumulative = -1.81479e-07
DICPCG:  Solving for p, Initial residual = 0.000407997, Final residual = 1.94695e-05, No Iterations 41
DICPCG:  Solving for p, Initial residual = 0.000154054, Final residual = 6.86022e-06, No Iterations 21
DICPCG:  Solving for p, Initial residual = 3.42916e-05, Final residual = 8.62227e-07, No Iterations 53
time step continuity errors : sum local = 5.7935e-10, global = 1.66735e-11, cumulative = -1.81462e-07
ExecutionTime = 0.21 s  ClockTime = 0 s

Time = 1.7

Courant Number mean: 0.0791518 max: 0.510464
smoothSolver:  Solving for Ux, Initial residual = 0.0025801, Final residual = 6.96341e-06, No Iterations 1
smoothSolver:  Solving for Uy, Initial residual = 0.00189865, Final residual = 5.68861e-06, No Iterations 1
DICPCG:  Solving for p, Initial residual = 0.00687258, Final residual = 0.000265589, No Iterations 6
DICPCG:  Solving for p, Initial residual = 0.00107475, Final residual = 3.77014e-05, No Iterations 49
DICPCG:  Solving for p, Initial residual = 0.000731834, Final residual = 3.40694e-05, No Iterations 4
time step continuity errors : sum local = 2.26657e-08, global = -7.02063e-10, cumulative = -1.82164e-07
DICPCG:  Solving for p, Initial residual = 0.000401607, Final residual = 1.84633e-05, No Iterations 41
DICPCG:  Solving for p, Initial residual = 0.000157858, Final residual = 7.66711e-06, No Iterations 17
DICPCG:  Solving for p, Initial residual = 3.21735e-05, Final residual = 8.72422e-07, No Iterations 54
time step continuity errors : sum local = 5.80689e-10, global = 1.18114e-11, cumulative = -1.82153e-07
ExecutionTime = 0.21 s  ClockTime = 0 s

Time = 1.75

Courant Number mean: 0.079159 max: 0.510978
smoothSolver:  Solving for Ux, Initial residual = 0.00252092, Final residual = 6.39637e-06, No Iterations 1
smoothSolver:  Solving for Uy, Initial residual = 0.00184899, Final residual = 5.318e-06, No Iterations 1
DICPCG:  Solving for p, Initial residual = 0.00914629, Final residual = 0.00042891, No Iterations 3
DICPCG:  Solving for p, Initial residual = 0.00127172, Final residual = 5.81898e-05, No Iterations 50
DICPCG:  Solving for p, Initial residual = 0.000800603, Final residual = 3.64919e-05, No Iterations 5
time step continuity errors : sum local = 2.39717e-08, global = -1.19135e-09, cumulative = -1.83344e-07
DICPCG:  Solving for p, Initial residual = 0.000590451, Final residual = 2.49727e-05, No Iterations 6
DICPCG:  Solving for p, Initial residual = 0.000121298, Final residual = 4.78814e-06, No Iterations 49
DICPCG:  Solving for p, Initial residual = 7.75535e-05, Final residual = 9.55818e-07, No Iterations 19
time step continuity errors : sum local = 6.28143e-10, global = 1.09077e-10, cumulative = -1.83235e-07
ExecutionTime = 0.22 s  ClockTime = 0 s

Time = 1.8

Courant Number mean: 0.0791672 max: 0.511555
smoothSolver:  Solving for Ux, Initial residual = 0.00246628, Final residual = 6.22571e-06, No Iterations 1
smoothSolver:  Solving for Uy, Initial residual = 0.00180079, Final residual = 5.18671e-06, No Iterations 1
DICPCG:  Solving for p, Initial residual = 0.00713515, Final residual = 0.000316364, No Iterations 7
DICPCG:  Solving for p, Initial residual = 0.0011939, Final residual = 4.70144e-05, No Iterations 53
DICPCG:  Solving for p, Initial residual = 0.000724353, Final residual = 3.28606e-05, No Iterations 3
time step continuity errors : sum local = 2.14496e-08, global = -4.32992e-10, cumulative = -1.83668e-07
DICPCG:  Solving for p, Initial residual = 0.000395465, Final residual = 1.89757e-05, No Iterations 27
DICPCG:  Solving for p, Initial residual = 0.000133377, Final residual = 5.79422e-06, No Iterations 35
DICPCG:  Solving for p, Initial residual = 5.16191e-05, Final residual = 7.50246e-07, No Iterations 25
time step continuity errors : sum local = 4.8995e-10, global = 5.09926e-11, cumulative = -1.83617e-07
ExecutionTime = 0.22 s  ClockTime = 0 s

Time = 1.85

Courant Number mean: 0.0791764 max: 0.512071
smoothSolver:  Solving for Ux, Initial residual = 0.00241439, Final residual = 6.02082e-06, No Iterations 1
smoothSolver:  Solving for Uy, Initial residual = 0.00175588, Final residual = 4.94524e-06, No Iterations 1
DICPCG:  Solving for p, Initial residual = 0.00665281, Final residual = 0.000264839, No Iterations 6
DICPCG:  Solving for p, Initial residual = 0.00101767, Final residual = 4.64351e-05, No Iterations 48
DICPCG:  Solving for p, Initial residual = 0.000655995, Final residual = 2.9615e-05, No Iterations 9
time step continuity errors : sum local = 1.91832e-08, global = -1.94591e-09, cumulative = -1.85563e-07
DICPCG:  Solving for p, Initial residual = 0.000378424, Final residual = 1.7811e-05, No Iterations 41
DICPCG:  Solving for p, Initial residual = 0.000133958, Final residual = 5.87873e-06, No Iterations 21
DICPCG:  Solving for p, Initial residual = 3.04419e-05, Final residual = 9.38142e-07, No Iterations 48
time step continuity errors : sum local = 6.07879e-10, global = -1.27364e-11, cumulative = -1.85576e-07
ExecutionTime = 0.23 s  ClockTime = 0 s

Time = 1.9

Courant Number mean: 0.0791865 max: 0.512579
smoothSolver:  Solving for Ux, Initial residual = 0.00236689, Final residual = 5.79231e-06, No Iterations 1
smoothSolver:  Solving for Uy, Initial residual = 0.00171362, Final residual = 4.6874e-06, No Iterations 1
DICPCG:  Solving for p, Initial residual = 0.00705315, Final residual = 0.000317124, No Iterations 5
DICPCG:  Solving for p, Initial residual = 0.00104962, Final residual = 4.51403e-05, No Iterations 49
DICPCG:  Solving for p, Initial residual = 0.000671758, Final residual = 2.62193e-05, No Iterations 5
time step continuity errors : sum local = 1.68405e-08, global = -7.67386e-10, cumulative = -1.86343e-07
DICPCG:  Solving for p, Initial residual = 0.000425672, Final residual = 2.1169e-05, No Iterations 26
DICPCG:  Solving for p, Initial residual = 0.000109558, Final residual = 4.87418e-06, No Iterations 53
DICPCG:  Solving for p, Initial residual = 5.02953e-05, Final residual = 7.84967e-07, No Iterations 16
time step continuity errors : sum local = 5.04407e-10, global = 8.84626e-11, cumulative = -1.86254e-07
ExecutionTime = 0.23 s  ClockTime = 0 s

Time = 1.95

Courant Number mean: 0.0791964 max: 0.513161
smoothSolver:  Solving for Ux, Initial residual = 0.00231823, Final residual = 5.59324e-06, No Iterations 1
smoothSolver:  Solving for Uy, Initial residual = 0.00167478, Final residual = 4.46341e-06, No Iterations 1
DICPCG:  Solving for p, Initial residual = 0.00577409, Final residual = 0.000269922, No Iterations 7
DICPCG:  Solving for p, Initial residual = 0.00106178, Final residual = 4.13084e-05, No Iterations 55
DICPCG:  Solving for p, Initial residual = 0.000600277, Final residual = 2.60731e-05, No Iterations 4
time step continuity errors : sum local = 1.66211e-08, global = -3.0052e-10, cumulative = -1.86555e-07
DICPCG:  Solving for p, Initial residual = 0.000349408, Final residual = 1.74654e-05, No Iterations 26
DICPCG:  Solving for p, Initial residual = 0.000120685, Final residual = 5.57331e-06, No Iterations 40
DICPCG:  Solving for p, Initial residual = 4.75218e-05, Final residual = 8.79097e-07, No Iterations 18
time step continuity errors : sum local = 5.60628e-10, global = 1.05891e-10, cumulative = -1.86449e-07
ExecutionTime = 0.24 s  ClockTime = 0 s

Time = 2

Courant Number mean: 0.0792067 max: 0.513651
smoothSolver:  Solving for Ux, Initial residual = 0.00227102, Final residual = 5.46015e-06, No Iterations 1
smoothSolver:  Solving for Uy, Initial residual = 0.00163792, Final residual = 4.32672e-06, No Iterations 1
DICPCG:  Solving for p, Initial residual = 0.00542318, Final residual = 0.000226807, No Iterations 8
DICPCG:  Solving for p, Initial residual = 0.00101458, Final residual = 4.36862e-05, No Iterations 54
DICPCG:  Solving for p, Initial residual = 0.000554307, Final residual = 2.50887e-05, No Iterations 4
time step continuity errors : sum local = 1.58796e-08, global = -6.79145e-11, cumulative = -1.86517e-07
DICPCG:  Solving for p, Initial residual = 0.000340921, Final residual = 1.54586e-05, No Iterations 25
DICPCG:  Solving for p, Initial residual = 0.000116943, Final residual = 5.42611e-06, No Iterations 41
DICPCG:  Solving for p, Initial residual = 4.61008e-05, Final residual = 8.31849e-07, No Iterations 22
time step continuity errors : sum local = 5.2668e-10, global = 7.06183e-11, cumulative = -1.86446e-07
ExecutionTime = 0.24 s  ClockTime = 0 s

Time = 2.05

Courant Number mean: 0.0792173 max: 0.514041
smoothSolver:  Solving for Ux, Initial residual = 0.00222706, Final residual = 5.35064e-06, No Iterations 1
smoothSolver:  Solving for Uy, Initial residual = 0.00160395, Final residual = 4.21999e-06, No Iterations 1
DICPCG:  Solving for p, Initial residual = 0.00590012, Final residual = 0.000253063, No Iterations 8
DICPCG:  Solving for p, Initial residual = 0.00112354, Final residual = 5.42945e-05, No Iterations 50
DICPCG:  Solving for p, Initial residual = 0.00053252, Final residual = 2.46377e-05, No Iterations 8
time step continuity errors : sum local = 1.54796e-08, global = 2.70994e-10, cumulative = -1.86175e-07
DICPCG:  Solving for p, Initial residual = 0.000369131, Final residual = 1.76134e-05, No Iterations 20
DICPCG:  Solving for p, Initial residual = 0.000133957, Final residual = 5.87323e-06, No Iterations 44
DICPCG:  Solving for p, Initial residual = 4.35573e-05, Final residual = 7.26373e-07, No Iterations 18
time step continuity errors : sum local = 4.56462e-10, global = 1.23625e-11, cumulative = -1.86163e-07
ExecutionTime = 0.25 s  ClockTime = 0 s

Time = 2.1

Courant Number mean: 0.0792276 max: 0.514334
smoothSolver:  Solving for Ux, Initial residual = 0.00218287, Final residual = 5.26181e-06, No Iterations 1
smoothSolver:  Solving for Uy, Initial residual = 0.00157217, Final residual = 4.12242e-06, No Iterations 1
DICPCG:  Solving for p, Initial residual = 0.00520327, Final residual = 0.000239997, No Iterations 9
DICPCG:  Solving for p, Initial residual = 0.000956751, Final residual = 3.97607e-05, No Iterations 54
DICPCG:  Solving for p, Initial residual = 0.000585167, Final residual = 2.42954e-05, No Iterations 5
time step continuity errors : sum local = 1.51884e-08, global = -6.10964e-10, cumulative = -1.86774e-07
DICPCG:  Solving for p, Initial residual = 0.000315181, Final residual = 1.44968e-05, No Iterations 25
DICPCG:  Solving for p, Initial residual = 0.000112292, Final residual = 5.14564e-06, No Iterations 43
DICPCG:  Solving for p, Initial residual = 4.60365e-05, Final residual = 8.16343e-07, No Iterations 23
time step continuity errors : sum local = 5.10509e-10, global = 5.19203e-13, cumulative = -1.86773e-07
ExecutionTime = 0.25 s  ClockTime = 0 s

Time = 2.15

Courant Number mean: 0.0792375 max: 0.514547
smoothSolver:  Solving for Ux, Initial residual = 0.00214191, Final residual = 5.18942e-06, No Iterations 1
smoothSolver:  Solving for Uy, Initial residual = 0.00154038, Final residual = 4.03405e-06, No Iterations 1
DICPCG:  Solving for p, Initial residual = 0.00489907, Final residual = 0.00022758, No Iterations 6
DICPCG:  Solving for p, Initial residual = 0.000794835, Final residual = 3.74929e-05, No Iterations 49
DICPCG:  Solving for p, Initial residual = 0.00054497, Final residual = 2.48078e-05, No Iterations 10
time step continuity errors : sum local = 1.54146e-08, global = -1.05655e-09, cumulative = -1.8783e-07
DICPCG:  Solving for p, Initial residual = 0.00027413, Final residual = 1.2909e-05, No Iterations 48
DICPCG:  Solving for p, Initial residual = 0.000108423, Final residual = 4.7386e-06, No Iterations 13
DICPCG:  Solving for p, Initial residual = 1.90741e-05, Final residual = 8.85305e-07, No Iterations 44
time step continuity errors : sum local = 5.50248e-10, global = -8.70803e-12, cumulative = -1.87839e-07
ExecutionTime = 0.26 s  ClockTime = 0 s

Time = 2.2

Courant Number mean: 0.0792483 max: 0.514695
smoothSolver:  Solving for Ux, Initial residual = 0.00210258, Final residual = 5.11597e-06, No Iterations 1
smoothSolver:  Solving for Uy, Initial residual = 0.00150781, Final residual = 3.93836e-06, No Iterations 1
DICPCG:  Solving for p, Initial residual = 0.00527926, Final residual = 0.000195276, No Iterations 6
DICPCG:  Solving for p, Initial residual = 0.000806104, Final residual = 3.46545e-05, No Iterations 46
DICPCG:  Solving for p, Initial residual = 0.000535348, Final residual = 1.94357e-05, No Iterations 5
time step continuity errors : sum local = 1.19967e-08, global = -3.92597e-10, cumulative = -1.88231e-07
DICPCG:  Solving for p, Initial residual = 0.000283139, Final residual = 1.32282e-05, No Iterations 46
DICPCG:  Solving for p, Initial residual = 0.000106974, Final residual = 4.90508e-06, No Iterations 17
DICPCG:  Solving for p, Initial residual = 1.85347e-05, Final residual = 9.25565e-07, No Iterations 47
time step continuity errors : sum local = 5.71487e-10, global = -6.87868e-12, cumulative = -1.88238e-07
ExecutionTime = 0.26 s  ClockTime = 0 s

Time = 2.25

Courant Number mean: 0.0792588 max: 0.514787
smoothSolver:  Solving for Ux, Initial residual = 0.00206474, Final residual = 4.88094e-06, No Iterations 1
smoothSolver:  Solving for Uy, Initial residual = 0.00147693, Final residual = 3.86361e-06, No Iterations 1
DICPCG:  Solving for p, Initial residual = 0.00501287, Final residual = 0.000244483, No Iterations 6
DICPCG:  Solving for p, Initial residual = 0.000760777, Final residual = 2.56634e-05, No Iterations 47
DICPCG:  Solving for p, Initial residual = 0.000508084, Final residual = 1.8611e-05, No Iterations 5
time step continuity errors : sum local = 1.14023e-08, global = -6.18368e-10, cumulative = -1.88857e-07
DICPCG:  Solving for p, Initial residual = 0.000262741, Final residual = 1.25484e-05, No Iterations 27
DICPCG:  Solving for p, Initial residual = 8.63058e-05, Final residual = 4.00517e-06, No Iterations 41
DICPCG:  Solving for p, Initial residual = 3.75574e-05, Final residual = 9.245e-07, No Iterations 18
time step continuity errors : sum local = 5.66576e-10, global = 6.73607e-11, cumulative = -1.88789e-07
ExecutionTime = 0.27 s  ClockTime = 0 s

Time = 2.3

Courant Number mean: 0.0792694 max: 0.514847
smoothSolver:  Solving for Ux, Initial residual = 0.00202977, Final residual = 4.80708e-06, No Iterations 1
smoothSolver:  Solving for Uy, Initial residual = 0.00144801, Final residual = 3.75955e-06, No Iterations 1
DICPCG:  Solving for p, Initial residual = 0.00440406, Final residual = 0.000219303, No Iterations 14
DICPCG:  Solving for p, Initial residual = 0.000893892, Final residual = 4.3174e-05, No Iterations 50
DICPCG:  Solving for p, Initial residual = 0.000473809, Final residual = 2.07406e-05, No Iterations 10
time step continuity errors : sum local = 1.26317e-08, global = -9.44763e-10, cumulative = -1.89734e-07
DICPCG:  Solving for p, Initial residual = 0.000292637, Final residual = 1.23855e-05, No Iterations 25
DICPCG:  Solving for p, Initial residual = 0.000104693, Final residual = 5.06044e-06, No Iterations 42
DICPCG:  Solving for p, Initial residual = 3.73289e-05, Final residual = 7.88532e-07, No Iterations 22
time step continuity errors : sum local = 4.80375e-10, global = -5.64996e-12, cumulative = -1.8974e-07
ExecutionTime = 0.27 s  ClockTime = 0 s

Time = 2.35

Courant Number mean: 0.0792801 max: 0.514862
smoothSolver:  Solving for Ux, Initial residual = 0.00199405, Final residual = 4.70616e-06, No Iterations 1
smoothSolver:  Solving for Uy, Initial residual = 0.00142148, Final residual = 3.67073e-06, No Iterations 1
DICPCG:  Solving for p, Initial residual = 0.00425339, Final residual = 0.000207793, No Iterations 15
DICPCG:  Solving for p, Initial residual = 0.000850337, Final residual = 3.77482e-05, No Iterations 46
DICPCG:  Solving for p, Initial residual = 0.000459311, Final residual = 1.91591e-05, No Iterations 8
time step continuity errors : sum local = 1.16115e-08, global = -4.42859e-10, cumulative = -1.90182e-07
DICPCG:  Solving for p, Initial residual = 0.000282517, Final residual = 1.24673e-05, No Iterations 25
DICPCG:  Solving for p, Initial residual = 0.000101718, Final residual = 5.05899e-06, No Iterations 41
DICPCG:  Solving for p, Initial residual = 3.76316e-05, Final residual = 7.46016e-07, No Iterations 22
time step continuity errors : sum local = 4.52258e-10, global = 4.72744e-11, cumulative = -1.90135e-07
ExecutionTime = 0.28 s  ClockTime = 0 s

Time = 2.4

Courant Number mean: 0.0792904 max: 0.514836
smoothSolver:  Solving for Ux, Initial residual = 0.00195993, Final residual = 4.63162e-06, No Iterations 1
smoothSolver:  Solving for Uy, Initial residual = 0.00139508, Final residual = 3.59089e-06, No Iterations 1
DICPCG:  Solving for p, Initial residual = 0.00394801, Final residual = 0.000183025, No Iterations 16
DICPCG:  Solving for p, Initial residual = 0.000801291, Final residual = 2.87961e-05, No Iterations 46
DICPCG:  Solving for p, Initial residual = 0.000441228, Final residual = 1.7355e-05, No Iterations 5
time step continuity errors : sum local = 1.04677e-08, global = -3.98286e-10, cumulative = -1.90533e-07
DICPCG:  Solving for p, Initial residual = 0.000249071, Final residual = 1.10336e-05, No Iterations 25
DICPCG:  Solving for p, Initial residual = 9.51993e-05, Final residual = 4.36365e-06, No Iterations 42
DICPCG:  Solving for p, Initial residual = 3.80439e-05, Final residual = 6.9092e-07, No Iterations 22
time step continuity errors : sum local = 4.16863e-10, global = 3.91853e-11, cumulative = -1.90494e-07
ExecutionTime = 0.28 s  ClockTime = 0 s

Time = 2.45

Courant Number mean: 0.0793003 max: 0.514775
smoothSolver:  Solving for Ux, Initial residual = 0.00192575, Final residual = 4.53302e-06, No Iterations 1
smoothSolver:  Solving for Uy, Initial residual = 0.00136994, Final residual = 3.50913e-06, No Iterations 1
DICPCG:  Solving for p, Initial residual = 0.00405116, Final residual = 0.000178316, No Iterations 16
DICPCG:  Solving for p, Initial residual = 0.000795575, Final residual = 3.11187e-05, No Iterations 46
DICPCG:  Solving for p, Initial residual = 0.000434675, Final residual = 1.84371e-05, No Iterations 5
time step continuity errors : sum local = 1.1068e-08, global = -2.99906e-10, cumulative = -1.90794e-07
DICPCG:  Solving for p, Initial residual = 0.000245775, Final residual = 1.07835e-05, No Iterations 25
DICPCG:  Solving for p, Initial residual = 9.41498e-05, Final residual = 4.34296e-06, No Iterations 42
DICPCG:  Solving for p, Initial residual = 3.70237e-05, Final residual = 9.84368e-07, No Iterations 21
time step continuity errors : sum local = 5.91109e-10, global = 3.00246e-11, cumulative = -1.90764e-07
ExecutionTime = 0.29 s  ClockTime = 0 s

Time = 2.5

Courant Number mean: 0.07931 max: 0.514682
smoothSolver:  Solving for Ux, Initial residual = 0.00189342, Final residual = 4.45669e-06, No Iterations 1
smoothSolver:  Solving for Uy, Initial residual = 0.00134583, Final residual = 3.43562e-06, No Iterations 1
DICPCG:  Solving for p, Initial residual = 0.00390688, Final residual = 0.000176585, No Iterations 16
DICPCG:  Solving for p, Initial residual = 0.000808258, Final residual = 3.07693e-05, No Iterations 46
DICPCG:  Solving for p, Initial residual = 0.000419893, Final residual = 1.80678e-05, No Iterations 5
time step continuity errors : sum local = 1.07968e-08, global = -3.26036e-10, cumulative = -1.9109e-07
DICPCG:  Solving for p, Initial residual = 0.0002371, Final residual = 1.03326e-05, No Iterations 25
DICPCG:  Solving for p, Initial residual = 9.22685e-05, Final residual = 4.53324e-06, No Iterations 42
DICPCG:  Solving for p, Initial residual = 3.57441e-05, Final residual = 9.96266e-07, No Iterations 21
time step continuity errors : sum local = 5.95509e-10, global = 1.78389e-11, cumulative = -1.91072e-07
ExecutionTime = 0.29 s  ClockTime = 0 s

Time = 2.55

Courant Number mean: 0.0793193 max: 0.514561
smoothSolver:  Solving for Ux, Initial residual = 0.00186222, Final residual = 4.40382e-06, No Iterations 1
smoothSolver:  Solving for Uy, Initial residual = 0.00132291, Final residual = 3.37894e-06, No Iterations 1
DICPCG:  Solving for p, Initial residual = 0.00384649, Final residual = 0.000178286, No Iterations 16
DICPCG:  Solving for p, Initial residual = 0.000818992, Final residual = 3.02811e-05, No Iterations 46
DICPCG:  Solving for p, Initial residual = 0.000415067, Final residual = 1.7406e-05, No Iterations 5
time step continuity errors : sum local = 1.03554e-08, global = -3.98757e-10, cumulative = -1.91471e-07
DICPCG:  Solving for p, Initial residual = 0.00023404, Final residual = 1.00998e-05, No Iterations 25
DICPCG:  Solving for p, Initial residual = 9.05767e-05, Final residual = 4.27167e-06, No Iterations 43
DICPCG:  Solving for p, Initial residual = 3.46494e-05, Final residual = 9.77624e-07, No Iterations 20
time step continuity errors : sum local = 5.81787e-10, global = -1.02931e-11, cumulative = -1.91481e-07
ExecutionTime = 0.3 s  ClockTime = 0 s

Time = 2.6

Courant Number mean: 0.0793282 max: 0.514415
smoothSolver:  Solving for Ux, Initial residual = 0.00183093, Final residual = 4.34083e-06, No Iterations 1
smoothSolver:  Solving for Uy, Initial residual = 0.00130246, Final residual = 3.32964e-06, No Iterations 1
DICPCG:  Solving for p, Initial residual = 0.00380718, Final residual = 0.000184383, No Iterations 16
DICPCG:  Solving for p, Initial residual = 0.000816363, Final residual = 3.18046e-05, No Iterations 46
DICPCG:  Solving for p, Initial residual = 0.000415479, Final residual = 1.80733e-05, No Iterations 5
time step continuity errors : sum local = 1.07056e-08, global = -4.28721e-10, cumulative = -1.9191e-07
DICPCG:  Solving for p, Initial residual = 0.000232852, Final residual = 1.00967e-05, No Iterations 25
DICPCG:  Solving for p, Initial residual = 9.02298e-05, Final residual = 4.49796e-06, No Iterations 43
DICPCG:  Solving for p, Initial residual = 3.41637e-05, Final residual = 8.8447e-07, No Iterations 22
time step continuity errors : sum local = 5.24056e-10, global = -5.57368e-12, cumulative = -1.91916e-07
ExecutionTime = 0.3 s  ClockTime = 0 s

Time = 2.65

Courant Number mean: 0.0793368 max: 0.514247
smoothSolver:  Solving for Ux, Initial residual = 0.00180162, Final residual = 4.27639e-06, No Iterations 1
smoothSolver:  Solving for Uy, Initial residual = 0.00128212, Final residual = 3.27945e-06, No Iterations 1
DICPCG:  Solving for p, Initial residual = 0.00358438, Final residual = 0.000168248, No Iterations 16
DICPCG:  Solving for p, Initial residual = 0.000780496, Final residual = 2.88735e-05, No Iterations 46
DICPCG:  Solving for p, Initial residual = 0.00040394, Final residual = 1.9935e-05, No Iterations 5
time step continuity errors : sum local = 1.17571e-08, global = -3.43652e-11, cumulative = -1.9195e-07
DICPCG:  Solving for p, Initial residual = 0.000225416, Final residual = 1.0103e-05, No Iterations 25
DICPCG:  Solving for p, Initial residual = 8.84783e-05, Final residual = 4.32711e-06, No Iterations 42
DICPCG:  Solving for p, Initial residual = 3.33134e-05, Final residual = 6.83386e-07, No Iterations 22
time step continuity errors : sum local = 4.0315e-10, global = 1.96608e-11, cumulative = -1.9193e-07
ExecutionTime = 0.31 s  ClockTime = 0 s

Time = 2.7

Courant Number mean: 0.079345 max: 0.51406
smoothSolver:  Solving for Ux, Initial residual = 0.00177557, Final residual = 4.21556e-06, No Iterations 1
smoothSolver:  Solving for Uy, Initial residual = 0.00126205, Final residual = 3.22479e-06, No Iterations 1
DICPCG:  Solving for p, Initial residual = 0.00346904, Final residual = 0.000166556, No Iterations 16
DICPCG:  Solving for p, Initial residual = 0.000772687, Final residual = 3.05362e-05, No Iterations 46
DICPCG:  Solving for p, Initial residual = 0.000392779, Final residual = 1.87755e-05, No Iterations 6
time step continuity errors : sum local = 1.10257e-08, global = 2.97014e-11, cumulative = -1.91901e-07
DICPCG:  Solving for p, Initial residual = 0.000223638, Final residual = 9.77066e-06, No Iterations 25
DICPCG:  Solving for p, Initial residual = 8.86864e-05, Final residual = 4.27891e-06, No Iterations 42
DICPCG:  Solving for p, Initial residual = 3.21733e-05, Final residual = 6.53962e-07, No Iterations 22
time step continuity errors : sum local = 3.84125e-10, global = 1.48499e-11, cumulative = -1.91886e-07
ExecutionTime = 0.31 s  ClockTime = 0 s

Time = 2.75

Courant Number mean: 0.0793529 max: 0.513854
smoothSolver:  Solving for Ux, Initial residual = 0.00175099, Final residual = 4.1678e-06, No Iterations 1
smoothSolver:  Solving for Uy, Initial residual = 0.00124232, Final residual = 3.16198e-06, No Iterations 1
DICPCG:  Solving for p, Initial residual = 0.00345546, Final residual = 0.000164221, No Iterations 16
DICPCG:  Solving for p, Initial residual = 0.000758641, Final residual = 3.1522e-05, No Iterations 46
DICPCG:  Solving for p, Initial residual = 0.00038371, Final residual = 1.53699e-05, No Iterations 8
time step continuity errors : sum local = 8.98372e-09, global = -2.37792e-10, cumulative = -1.92124e-07
DICPCG:  Solving for p, Initial residual = 0.000222012, Final residual = 9.62094e-06, No Iterations 25
DICPCG:  Solving for p, Initial residual = 8.73852e-05, Final residual = 4.11309e-06, No Iterations 43
DICPCG:  Solving for p, Initial residual = 3.09722e-05, Final residual = 9.14159e-07, No Iterations 20
time step continuity errors : sum local = 5.34445e-10, global = -2.53493e-11, cumulative = -1.92149e-07
ExecutionTime = 0.32 s  ClockTime = 0 s

Time = 2.8

Courant Number mean: 0.0793604 max: 0.513634
smoothSolver:  Solving for Ux, Initial residual = 0.00172605, Final residual = 4.11639e-06, No Iterations 1
smoothSolver:  Solving for Uy, Initial residual = 0.00122318, Final residual = 3.1058e-06, No Iterations 1
DICPCG:  Solving for p, Initial residual = 0.00340364, Final residual = 0.000161332, No Iterations 16
DICPCG:  Solving for p, Initial residual = 0.000753271, Final residual = 3.20219e-05, No Iterations 46
DICPCG:  Solving for p, Initial residual = 0.00037053, Final residual = 1.65363e-05, No Iterations 8
time step continuity errors : sum local = 9.62625e-09, global = -1.77941e-10, cumulative = -1.92327e-07
DICPCG:  Solving for p, Initial residual = 0.000219463, Final residual = 9.27071e-06, No Iterations 25
DICPCG:  Solving for p, Initial residual = 8.70327e-05, Final residual = 4.29268e-06, No Iterations 43
DICPCG:  Solving for p, Initial residual = 2.93769e-05, Final residual = 9.33348e-07, No Iterations 20
time step continuity errors : sum local = 5.43433e-10, global = -4.18349e-11, cumulative = -1.92369e-07
ExecutionTime = 0.32 s  ClockTime = 0 s

Time = 2.85

Courant Number mean: 0.0793676 max: 0.513401
smoothSolver:  Solving for Ux, Initial residual = 0.00170118, Final residual = 4.06715e-06, No Iterations 1
smoothSolver:  Solving for Uy, Initial residual = 0.00120521, Final residual = 3.06123e-06, No Iterations 1
DICPCG:  Solving for p, Initial residual = 0.00330192, Final residual = 0.000157707, No Iterations 16
DICPCG:  Solving for p, Initial residual = 0.000739483, Final residual = 3.11561e-05, No Iterations 46
DICPCG:  Solving for p, Initial residual = 0.000364397, Final residual = 1.69675e-05, No Iterations 8
time step continuity errors : sum local = 9.83965e-09, global = -1.53644e-10, cumulative = -1.92522e-07
DICPCG:  Solving for p, Initial residual = 0.000217985, Final residual = 9.0426e-06, No Iterations 25
DICPCG:  Solving for p, Initial residual = 8.62725e-05, Final residual = 4.25962e-06, No Iterations 43
DICPCG:  Solving for p, Initial residual = 2.86986e-05, Final residual = 9.00648e-07, No Iterations 20
time step continuity errors : sum local = 5.22399e-10, global = -4.34782e-11, cumulative = -1.92566e-07
ExecutionTime = 0.32 s  ClockTime = 0 s

Time = 2.9

Courant Number mean: 0.0793745 max: 0.513155
smoothSolver:  Solving for Ux, Initial residual = 0.00167637, Final residual = 4.01145e-06, No Iterations 1
smoothSolver:  Solving for Uy, Initial residual = 0.0011882, Final residual = 3.01435e-06, No Iterations 1
DICPCG:  Solving for p, Initial residual = 0.00338243, Final residual = 0.000167763, No Iterations 15
DICPCG:  Solving for p, Initial residual = 0.000759879, Final residual = 3.43385e-05, No Iterations 49
DICPCG:  Solving for p, Initial residual = 0.000353886, Final residual = 1.59388e-05, No Iterations 12
time step continuity errors : sum local = 9.21072e-09, global = -2.88165e-10, cumulative = -1.92854e-07
DICPCG:  Solving for p, Initial residual = 0.000222017, Final residual = 8.628e-06, No Iterations 25
DICPCG:  Solving for p, Initial residual = 8.48781e-05, Final residual = 3.63052e-06, No Iterations 44
DICPCG:  Solving for p, Initial residual = 2.65846e-05, Final residual = 7.72649e-07, No Iterations 23
time step continuity errors : sum local = 4.46578e-10, global = -2.59204e-11, cumulative = -1.9288e-07
ExecutionTime = 0.33 s  ClockTime = 0 s

Time = 2.95

Courant Number mean: 0.0793811 max: 0.5129
smoothSolver:  Solving for Ux, Initial residual = 0.00165273, Final residual = 3.94673e-06, No Iterations 1
smoothSolver:  Solving for Uy, Initial residual = 0.00117163, Final residual = 2.96115e-06, No Iterations 1
DICPCG:  Solving for p, Initial residual = 0.00327321, Final residual = 0.000159999, No Iterations 15
DICPCG:  Solving for p, Initial residual = 0.000740278, Final residual = 3.3062e-05, No Iterations 47
DICPCG:  Solving for p, Initial residual = 0.000355844, Final residual = 1.50972e-05, No Iterations 13
time step continuity errors : sum local = 8.69305e-09, global = -1.09844e-10, cumulative = -1.9299e-07
DICPCG:  Solving for p, Initial residual = 0.000220117, Final residual = 8.50381e-06, No Iterations 25
DICPCG:  Solving for p, Initial residual = 8.50032e-05, Final residual = 4.19302e-06, No Iterations 44
DICPCG:  Solving for p, Initial residual = 2.6443e-05, Final residual = 9.48526e-07, No Iterations 23
time step continuity errors : sum local = 5.46255e-10, global = -4.12545e-11, cumulative = -1.93031e-07
ExecutionTime = 0.33 s  ClockTime = 0 s

Time = 3

Courant Number mean: 0.0793882 max: 0.51264
smoothSolver:  Solving for Ux, Initial residual = 0.00163114, Final residual = 3.86305e-06, No Iterations 1
smoothSolver:  Solving for Uy, Initial residual = 0.00115547, Final residual = 2.89418e-06, No Iterations 1
DICPCG:  Solving for p, Initial residual = 0.00337485, Final residual = 0.000150399, No Iterations 15
DICPCG:  Solving for p, Initial residual = 0.000723365, Final residual = 3.09333e-05, No Iterations 47
DICPCG:  Solving for p, Initial residual = 0.000349782, Final residual = 1.43718e-05, No Iterations 13
time step continuity errors : sum local = 8.24432e-09, global = -1.40547e-10, cumulative = -1.93172e-07
DICPCG:  Solving for p, Initial residual = 0.000220782, Final residual = 8.16388e-06, No Iterations 25
DICPCG:  Solving for p, Initial residual = 8.27398e-05, Final residual = 3.82773e-06, No Iterations 46
DICPCG:  Solving for p, Initial residual = 2.62365e-05, Final residual = 6.89447e-07, No Iterations 24
time step continuity errors : sum local = 3.9555e-10, global = -1.87807e-11, cumulative = -1.9319e-07
ExecutionTime = 0.34 s  ClockTime = 0 s

Time = 3.05

Courant Number mean: 0.0793964 max: 0.51238
smoothSolver:  Solving for Ux, Initial residual = 0.00160975, Final residual = 3.78578e-06, No Iterations 1
smoothSolver:  Solving for Uy, Initial residual = 0.00113994, Final residual = 2.83017e-06, No Iterations 1
DICPCG:  Solving for p, Initial residual = 0.00348557, Final residual = 0.000147835, No Iterations 15
DICPCG:  Solving for p, Initial residual = 0.00072007, Final residual = 3.08501e-05, No Iterations 47
DICPCG:  Solving for p, Initial residual = 0.000345243, Final residual = 1.41523e-05, No Iterations 13
time step continuity errors : sum local = 8.08919e-09, global = -1.21532e-10, cumulative = -1.93312e-07
DICPCG:  Solving for p, Initial residual = 0.000224411, Final residual = 1.11699e-05, No Iterations 20
DICPCG:  Solving for p, Initial residual = 8.36669e-05, Final residual = 3.74342e-06, No Iterations 43
DICPCG:  Solving for p, Initial residual = 2.80477e-05, Final residual = 9.85565e-07, No Iterations 5
time step continuity errors : sum local = 5.63408e-10, global = 1.42117e-11, cumulative = -1.93298e-07
ExecutionTime = 0.35 s  ClockTime = 0 s

Time = 3.1

Courant Number mean: 0.0794044 max: 0.51212
smoothSolver:  Solving for Ux, Initial residual = 0.00158996, Final residual = 3.77895e-06, No Iterations 1
smoothSolver:  Solving for Uy, Initial residual = 0.00112468, Final residual = 2.79878e-06, No Iterations 1
DICPCG:  Solving for p, Initial residual = 0.00340273, Final residual = 0.000144317, No Iterations 15
DICPCG:  Solving for p, Initial residual = 0.000715397, Final residual = 2.8794e-05, No Iterations 47
DICPCG:  Solving for p, Initial residual = 0.000340875, Final residual = 1.39346e-05, No Iterations 13
time step continuity errors : sum local = 7.93777e-09, global = -1.17233e-10, cumulative = -1.93415e-07
DICPCG:  Solving for p, Initial residual = 0.000220862, Final residual = 1.08992e-05, No Iterations 20
DICPCG:  Solving for p, Initial residual = 8.20657e-05, Final residual = 3.70015e-06, No Iterations 43
DICPCG:  Solving for p, Initial residual = 2.78612e-05, Final residual = 8.5213e-07, No Iterations 7
time step continuity errors : sum local = 4.85479e-10, global = 2.73079e-11, cumulative = -1.93388e-07
ExecutionTime = 0.35 s  ClockTime = 0 s

Time = 3.15

Courant Number mean: 0.079412 max: 0.511854
smoothSolver:  Solving for Ux, Initial residual = 0.00157093, Final residual = 3.74866e-06, No Iterations 1
smoothSolver:  Solving for Uy, Initial residual = 0.00110984, Final residual = 2.78105e-06, No Iterations 1
DICPCG:  Solving for p, Initial residual = 0.00337432, Final residual = 0.000144179, No Iterations 15
DICPCG:  Solving for p, Initial residual = 0.000728167, Final residual = 3.35834e-05, No Iterations 46
DICPCG:  Solving for p, Initial residual = 0.000331924, Final residual = 1.52923e-05, No Iterations 13
time step continuity errors : sum local = 8.68708e-09, global = 7.45146e-11, cumulative = -1.93313e-07
DICPCG:  Solving for p, Initial residual = 0.000216481, Final residual = 1.08118e-05, No Iterations 20
DICPCG:  Solving for p, Initial residual = 8.16161e-05, Final residual = 3.75168e-06, No Iterations 43
DICPCG:  Solving for p, Initial residual = 2.63039e-05, Final residual = 8.44876e-07, No Iterations 8
time step continuity errors : sum local = 4.80009e-10, global = 3.12693e-11, cumulative = -1.93282e-07
ExecutionTime = 0.36 s  ClockTime = 0 s

Time = 3.2

Courant Number mean: 0.0794194 max: 0.511578
smoothSolver:  Solving for Ux, Initial residual = 0.00155186, Final residual = 3.70589e-06, No Iterations 1
smoothSolver:  Solving for Uy, Initial residual = 0.00109578, Final residual = 2.76356e-06, No Iterations 1
DICPCG:  Solving for p, Initial residual = 0.00362155, Final residual = 0.000161771, No Iterations 15
DICPCG:  Solving for p, Initial residual = 0.00076637, Final residual = 2.98952e-05, No Iterations 46
DICPCG:  Solving for p, Initial residual = 0.000380555, Final residual = 1.83991e-05, No Iterations 8
time step continuity errors : sum local = 1.04201e-08, global = -3.28101e-10, cumulative = -1.9361e-07
DICPCG:  Solving for p, Initial residual = 0.000225366, Final residual = 1.02849e-05, No Iterations 26
DICPCG:  Solving for p, Initial residual = 8.01735e-05, Final residual = 3.96571e-06, No Iterations 39
DICPCG:  Solving for p, Initial residual = 2.79999e-05, Final residual = 9.93581e-07, No Iterations 14
time step continuity errors : sum local = 5.62817e-10, global = 3.52552e-11, cumulative = -1.93575e-07
ExecutionTime = 0.36 s  ClockTime = 0 s

Time = 3.25

Courant Number mean: 0.0794264 max: 0.511291
smoothSolver:  Solving for Ux, Initial residual = 0.00153396, Final residual = 3.63797e-06, No Iterations 1
smoothSolver:  Solving for Uy, Initial residual = 0.00108225, Final residual = 2.73512e-06, No Iterations 1
DICPCG:  Solving for p, Initial residual = 0.0033166, Final residual = 0.000139136, No Iterations 15
DICPCG:  Solving for p, Initial residual = 0.000716796, Final residual = 3.43192e-05, No Iterations 45
DICPCG:  Solving for p, Initial residual = 0.000314535, Final residual = 1.3836e-05, No Iterations 13
time step continuity errors : sum local = 7.8209e-09, global = 1.20836e-10, cumulative = -1.93454e-07
DICPCG:  Solving for p, Initial residual = 0.000207527, Final residual = 1.01759e-05, No Iterations 20
DICPCG:  Solving for p, Initial residual = 7.72355e-05, Final residual = 2.79812e-06, No Iterations 44
DICPCG:  Solving for p, Initial residual = 2.41654e-05, Final residual = 8.58736e-07, No Iterations 8
time step continuity errors : sum local = 4.85471e-10, global = 3.42216e-11, cumulative = -1.9342e-07
ExecutionTime = 0.36 s  ClockTime = 0 s

Time = 3.3

Courant Number mean: 0.0794339 max: 0.510992
smoothSolver:  Solving for Ux, Initial residual = 0.00151628, Final residual = 3.55089e-06, No Iterations 1
smoothSolver:  Solving for Uy, Initial residual = 0.00106911, Final residual = 2.65968e-06, No Iterations 1
DICPCG:  Solving for p, Initial residual = 0.00471159, Final residual = 0.000197463, No Iterations 8
DICPCG:  Solving for p, Initial residual = 0.00082846, Final residual = 4.13447e-05, No Iterations 44
DICPCG:  Solving for p, Initial residual = 0.00032867, Final residual = 1.64234e-05, No Iterations 20
time step continuity errors : sum local = 9.24482e-09, global = 1.07206e-10, cumulative = -1.93312e-07
DICPCG:  Solving for p, Initial residual = 0.000311805, Final residual = 1.49864e-05, No Iterations 17
DICPCG:  Solving for p, Initial residual = 0.000111223, Final residual = 4.2474e-06, No Iterations 10
DICPCG:  Solving for p, Initial residual = 2.06307e-05, Final residual = 9.31471e-07, No Iterations 24
time step continuity errors : sum local = 5.24225e-10, global = -9.63575e-11, cumulative = -1.93409e-07
ExecutionTime = 0.37 s  ClockTime = 0 s

Time = 3.35

Courant Number mean: 0.0794412 max: 0.51068
smoothSolver:  Solving for Ux, Initial residual = 0.00150057, Final residual = 3.53546e-06, No Iterations 1
smoothSolver:  Solving for Uy, Initial residual = 0.00105492, Final residual = 2.62467e-06, No Iterations 1
DICPCG:  Solving for p, Initial residual = 0.00331733, Final residual = 0.000162367, No Iterations 14
DICPCG:  Solving for p, Initial residual = 0.000688421, Final residual = 2.62187e-05, No Iterations 52
DICPCG:  Solving for p, Initial residual = 0.000287126, Final residual = 9.49504e-06, No Iterations 8
time step continuity errors : sum local = 5.33391e-09, global = -3.60806e-10, cumulative = -1.9377e-07
DICPCG:  Solving for p, Initial residual = 0.000194906, Final residual = 9.58736e-06, No Iterations 22
DICPCG:  Solving for p, Initial residual = 7.41889e-05, Final residual = 3.70664e-06, No Iterations 43
DICPCG:  Solving for p, Initial residual = 2.40148e-05, Final residual = 9.32151e-07, No Iterations 18
time step continuity errors : sum local = 5.23699e-10, global = -7.18788e-11, cumulative = -1.93842e-07
ExecutionTime = 0.38 s  ClockTime = 0 s

Time = 3.4

Courant Number mean: 0.0794482 max: 0.510362
smoothSolver:  Solving for Ux, Initial residual = 0.00148388, Final residual = 3.49248e-06, No Iterations 1
smoothSolver:  Solving for Uy, Initial residual = 0.00104249, Final residual = 2.5898e-06, No Iterations 1
DICPCG:  Solving for p, Initial residual = 0.00330954, Final residual = 0.000141562, No Iterations 15
DICPCG:  Solving for p, Initial residual = 0.000689661, Final residual = 3.23551e-05, No Iterations 45
DICPCG:  Solving for p, Initial residual = 0.000292637, Final residual = 1.20156e-05, No Iterations 13
time step continuity errors : sum local = 6.73901e-09, global = 4.14433e-11, cumulative = -1.938e-07
DICPCG:  Solving for p, Initial residual = 0.000198285, Final residual = 9.79329e-06, No Iterations 20
DICPCG:  Solving for p, Initial residual = 7.27973e-05, Final residual = 2.98379e-06, No Iterations 43
DICPCG:  Solving for p, Initial residual = 2.19307e-05, Final residual = 9.47851e-07, No Iterations 6
time step continuity errors : sum local = 5.31652e-10, global = 5.15069e-12, cumulative = -1.93795e-07
ExecutionTime = 0.38 s  ClockTime = 0 s

Time = 3.45

Courant Number mean: 0.0794551 max: 0.510041
smoothSolver:  Solving for Ux, Initial residual = 0.00146678, Final residual = 3.43514e-06, No Iterations 1
smoothSolver:  Solving for Uy, Initial residual = 0.00103035, Final residual = 2.55861e-06, No Iterations 1
DICPCG:  Solving for p, Initial residual = 0.00337739, Final residual = 0.000163774, No Iterations 14
DICPCG:  Solving for p, Initial residual = 0.000684638, Final residual = 3.42286e-05, No Iterations 47
DICPCG:  Solving for p, Initial residual = 0.000295536, Final residual = 1.39572e-05, No Iterations 13
time step continuity errors : sum local = 7.81552e-09, global = 1.40874e-10, cumulative = -1.93654e-07
DICPCG:  Solving for p, Initial residual = 0.000196214, Final residual = 9.48496e-06, No Iterations 20
DICPCG:  Solving for p, Initial residual = 7.1784e-05, Final residual = 2.90921e-06, No Iterations 43
DICPCG:  Solving for p, Initial residual = 2.14837e-05, Final residual = 8.9279e-07, No Iterations 6
time step continuity errors : sum local = 4.99972e-10, global = 1.17921e-11, cumulative = -1.93642e-07
ExecutionTime = 0.39 s  ClockTime = 0 s

Time = 3.5

Courant Number mean: 0.0794619 max: 0.50972
smoothSolver:  Solving for Ux, Initial residual = 0.00145043, Final residual = 3.37926e-06, No Iterations 1
smoothSolver:  Solving for Uy, Initial residual = 0.00101827, Final residual = 2.53304e-06, No Iterations 1
DICPCG:  Solving for p, Initial residual = 0.00333794, Final residual = 0.000153376, No Iterations 14
DICPCG:  Solving for p, Initial residual = 0.000679381, Final residual = 3.39645e-05, No Iterations 47
DICPCG:  Solving for p, Initial residual = 0.000269759, Final residual = 1.10812e-05, No Iterations 13
time step continuity errors : sum local = 6.19764e-09, global = 1.35298e-10, cumulative = -1.93507e-07
[...]
DICPCG:  Solving for p, Initial residual = 7.92597e-07, Final residual = 7.92597e-07, No Iterations 0
time step continuity errors : sum local = 4.52514e-10, global = 1.02344e-10, cumulative = -2.03159e-07
DICPCG:  Solving for p, Initial residual = 1.04013e-06, Final residual = 6.68401e-07, No Iterations 1
DICPCG:  Solving for p, Initial residual = 6.97447e-07, Final residual = 6.97447e-07, No Iterations 0
DICPCG:  Solving for p, Initial residual = 6.97447e-07, Final residual = 6.97447e-07, No Iterations 0
time step continuity errors : sum local = 3.9819e-10, global = 1.09139e-10, cumulative = -2.0305e-07
ExecutionTime = 3.05 s  ClockTime = 3 s

Time = 39.2

Courant Number mean: 0.0796329 max: 0.502794
smoothSolver:  Solving for Ux, Initial residual = 1.2426e-05, Final residual = 2.19375e-08, No Iterations 1
smoothSolver:  Solving for Uy, Initial residual = 9.98523e-06, Final residual = 9.98523e-06, No Iterations 0
DICPCG:  Solving for p, Initial residual = 2.24353e-05, Final residual = 9.30634e-07, No Iterations 18
DICPCG:  Solving for p, Initial residual = 1.1516e-05, Final residual = 9.16403e-07, No Iterations 2
DICPCG:  Solving for p, Initial residual = 1.47132e-06, Final residual = 6.34718e-07, No Iterations 1
time step continuity errors : sum local = 3.62378e-10, global = 8.77157e-11, cumulative = -2.02963e-07
DICPCG:  Solving for p, Initial residual = 1.93188e-05, Final residual = 9.38548e-07, No Iterations 18
DICPCG:  Solving for p, Initial residual = 1.12671e-05, Final residual = 9.06368e-07, No Iterations 2
DICPCG:  Solving for p, Initial residual = 1.44035e-06, Final residual = 6.48702e-07, No Iterations 1
time step continuity errors : sum local = 3.70359e-10, global = 1.01132e-10, cumulative = -2.02861e-07
ExecutionTime = 3.05 s  ClockTime = 3 s

Time = 39.25

Courant Number mean: 0.0796328 max: 0.502794
smoothSolver:  Solving for Ux, Initial residual = 1.23504e-05, Final residual = 2.18487e-08, No Iterations 1
smoothSolver:  Solving for Uy, Initial residual = 9.91634e-06, Final residual = 9.91634e-06, No Iterations 0
DICPCG:  Solving for p, Initial residual = 2.21382e-05, Final residual = 9.62178e-07, No Iterations 22
DICPCG:  Solving for p, Initial residual = 1.20475e-05, Final residual = 9.22581e-07, No Iterations 2
DICPCG:  Solving for p, Initial residual = 1.4832e-06, Final residual = 6.06426e-07, No Iterations 1
time step continuity errors : sum local = 3.46224e-10, global = 8.91285e-11, cumulative = -2.02772e-07
DICPCG:  Solving for p, Initial residual = 1.92615e-05, Final residual = 8.78541e-07, No Iterations 18
DICPCG:  Solving for p, Initial residual = 1.12285e-05, Final residual = 8.76717e-07, No Iterations 2
DICPCG:  Solving for p, Initial residual = 1.4159e-06, Final residual = 6.20953e-07, No Iterations 1
time step continuity errors : sum local = 3.54515e-10, global = 9.77963e-11, cumulative = -2.02675e-07
ExecutionTime = 3.05 s  ClockTime = 3 s

Time = 39.3

Courant Number mean: 0.0796328 max: 0.502795
smoothSolver:  Solving for Ux, Initial residual = 1.22797e-05, Final residual = 2.17453e-08, No Iterations 1
smoothSolver:  Solving for Uy, Initial residual = 9.84707e-06, Final residual = 9.84707e-06, No Iterations 0
DICPCG:  Solving for p, Initial residual = 2.18255e-05, Final residual = 9.25325e-07, No Iterations 18
DICPCG:  Solving for p, Initial residual = 1.16214e-05, Final residual = 9.33584e-07, No Iterations 2
DICPCG:  Solving for p, Initial residual = 1.48422e-06, Final residual = 6.43794e-07, No Iterations 1
time step continuity errors : sum local = 3.67558e-10, global = 4.13027e-11, cumulative = -2.02633e-07
DICPCG:  Solving for p, Initial residual = 1.91184e-05, Final residual = 8.56478e-07, No Iterations 18
DICPCG:  Solving for p, Initial residual = 1.10723e-05, Final residual = 8.77398e-07, No Iterations 2
DICPCG:  Solving for p, Initial residual = 1.41733e-06, Final residual = 6.17427e-07, No Iterations 1
time step continuity errors : sum local = 3.52502e-10, global = 7.29321e-11, cumulative = -2.0256e-07
ExecutionTime = 3.06 s  ClockTime = 3 s

Time = 39.35

Courant Number mean: 0.0796327 max: 0.502795
smoothSolver:  Solving for Ux, Initial residual = 1.22057e-05, Final residual = 2.1625e-08, No Iterations 1
smoothSolver:  Solving for Uy, Initial residual = 9.78012e-06, Final residual = 9.78012e-06, No Iterations 0
DICPCG:  Solving for p, Initial residual = 2.17036e-05, Final residual = 1.07215e-06, No Iterations 17
DICPCG:  Solving for p, Initial residual = 1.14275e-05, Final residual = 8.40632e-07, No Iterations 3
DICPCG:  Solving for p, Initial residual = 1.60869e-06, Final residual = 5.56748e-07, No Iterations 1
time step continuity errors : sum local = 3.17861e-10, global = -1.50816e-11, cumulative = -2.02575e-07
DICPCG:  Solving for p, Initial residual = 1.90569e-05, Final residual = 9.86768e-07, No Iterations 17
DICPCG:  Solving for p, Initial residual = 1.09348e-05, Final residual = 9.40185e-07, No Iterations 2
DICPCG:  Solving for p, Initial residual = 1.46094e-06, Final residual = 7.03587e-07, No Iterations 1
time step continuity errors : sum local = 4.01692e-10, global = 2.29954e-11, cumulative = -2.02552e-07
ExecutionTime = 3.06 s  ClockTime = 3 s

Time = 39.4

Courant Number mean: 0.0796326 max: 0.502795
smoothSolver:  Solving for Ux, Initial residual = 1.21317e-05, Final residual = 2.14968e-08, No Iterations 1
smoothSolver:  Solving for Uy, Initial residual = 9.71357e-06, Final residual = 9.71357e-06, No Iterations 0
DICPCG:  Solving for p, Initial residual = 2.15694e-05, Final residual = 8.76622e-07, No Iterations 18
DICPCG:  Solving for p, Initial residual = 1.1326e-05, Final residual = 9.08875e-07, No Iterations 2
DICPCG:  Solving for p, Initial residual = 1.4641e-06, Final residual = 6.43882e-07, No Iterations 1
time step continuity errors : sum local = 3.67608e-10, global = -8.00357e-11, cumulative = -2.02632e-07
DICPCG:  Solving for p, Initial residual = 1.8895e-05, Final residual = 9.03585e-07, No Iterations 18
DICPCG:  Solving for p, Initial residual = 1.09878e-05, Final residual = 8.92103e-07, No Iterations 2
DICPCG:  Solving for p, Initial residual = 1.42039e-06, Final residual = 6.20707e-07, No Iterations 1
time step continuity errors : sum local = 3.54375e-10, global = -3.97506e-11, cumulative = -2.02672e-07
ExecutionTime = 3.07 s  ClockTime = 3 s

Time = 39.45

Courant Number mean: 0.0796326 max: 0.502796
smoothSolver:  Solving for Ux, Initial residual = 1.20641e-05, Final residual = 2.13881e-08, No Iterations 1
smoothSolver:  Solving for Uy, Initial residual = 9.64456e-06, Final residual = 9.64456e-06, No Iterations 0
DICPCG:  Solving for p, Initial residual = 2.14834e-05, Final residual = 1.02478e-06, No Iterations 18
DICPCG:  Solving for p, Initial residual = 1.15179e-05, Final residual = 9.58511e-07, No Iterations 2
DICPCG:  Solving for p, Initial residual = 1.51234e-06, Final residual = 7.03529e-07, No Iterations 1
time step continuity errors : sum local = 4.01663e-10, global = -1.36273e-10, cumulative = -2.02808e-07
DICPCG:  Solving for p, Initial residual = 1.87953e-05, Final residual = 8.429e-07, No Iterations 24
DICPCG:  Solving for p, Initial residual = 1.09524e-05, Final residual = 9.09506e-07, No Iterations 2
DICPCG:  Solving for p, Initial residual = 1.42907e-06, Final residual = 6.27467e-07, No Iterations 1
time step continuity errors : sum local = 3.58236e-10, global = -1.12768e-10, cumulative = -2.02921e-07
ExecutionTime = 3.07 s  ClockTime = 3 s

Time = 39.5

Courant Number mean: 0.0796325 max: 0.502796
smoothSolver:  Solving for Ux, Initial residual = 1.19948e-05, Final residual = 2.12548e-08, No Iterations 1
smoothSolver:  Solving for Uy, Initial residual = 9.57785e-06, Final residual = 9.57785e-06, No Iterations 0
DICPCG:  Solving for p, Initial residual = 2.14097e-05, Final residual = 9.3586e-07, No Iterations 18
DICPCG:  Solving for p, Initial residual = 1.19489e-05, Final residual = 9.22019e-07, No Iterations 2
DICPCG:  Solving for p, Initial residual = 1.45898e-06, Final residual = 6.84135e-07, No Iterations 1
time step continuity errors : sum local = 3.90593e-10, global = -1.65408e-10, cumulative = -2.03087e-07
DICPCG:  Solving for p, Initial residual = 1.86213e-05, Final residual = 9.3281e-07, No Iterations 46
DICPCG:  Solving for p, Initial residual = 1.21698e-05, Final residual = 8.76747e-07, No Iterations 2
DICPCG:  Solving for p, Initial residual = 1.42235e-06, Final residual = 5.45246e-07, No Iterations 1
time step continuity errors : sum local = 3.11306e-10, global = -2.08254e-11, cumulative = -2.03107e-07
ExecutionTime = 3.07 s  ClockTime = 3 s

Time = 39.55

Courant Number mean: 0.0796325 max: 0.502796
smoothSolver:  Solving for Ux, Initial residual = 1.19258e-05, Final residual = 2.10836e-08, No Iterations 1
smoothSolver:  Solving for Uy, Initial residual = 9.50715e-06, Final residual = 9.50715e-06, No Iterations 0
DICPCG:  Solving for p, Initial residual = 2.08139e-05, Final residual = 9.07188e-07, No Iterations 24
DICPCG:  Solving for p, Initial residual = 1.14075e-05, Final residual = 9.33969e-07, No Iterations 2
DICPCG:  Solving for p, Initial residual = 1.43065e-06, Final residual = 6.57325e-07, No Iterations 1
time step continuity errors : sum local = 3.75299e-10, global = 8.09327e-11, cumulative = -2.03027e-07
DICPCG:  Solving for p, Initial residual = 1.85241e-05, Final residual = 8.19048e-07, No Iterations 18
DICPCG:  Solving for p, Initial residual = 1.09161e-05, Final residual = 8.25342e-07, No Iterations 2
DICPCG:  Solving for p, Initial residual = 1.34216e-06, Final residual = 5.82794e-07, No Iterations 1
time step continuity errors : sum local = 3.32743e-10, global = 8.92172e-11, cumulative = -2.02937e-07
ExecutionTime = 3.08 s  ClockTime = 3 s

Time = 39.6

Courant Number mean: 0.0796324 max: 0.502796
smoothSolver:  Solving for Ux, Initial residual = 1.1855e-05, Final residual = 2.09945e-08, No Iterations 1
smoothSolver:  Solving for Uy, Initial residual = 9.43938e-06, Final residual = 9.43938e-06, No Iterations 0
DICPCG:  Solving for p, Initial residual = 2.0559e-05, Final residual = 9.82343e-07, No Iterations 24
DICPCG:  Solving for p, Initial residual = 1.13613e-05, Final residual = 9.81614e-07, No Iterations 2
DICPCG:  Solving for p, Initial residual = 1.49576e-06, Final residual = 6.86828e-07, No Iterations 1
time step continuity errors : sum local = 3.92142e-10, global = 1.41588e-10, cumulative = -2.02796e-07
DICPCG:  Solving for p, Initial residual = 1.8409e-05, Final residual = 9.20612e-07, No Iterations 18
DICPCG:  Solving for p, Initial residual = 1.0912e-05, Final residual = 8.56486e-07, No Iterations 2
DICPCG:  Solving for p, Initial residual = 1.36571e-06, Final residual = 6.24066e-07, No Iterations 1
time step continuity errors : sum local = 3.56305e-10, global = 1.26141e-10, cumulative = -2.0267e-07
ExecutionTime = 3.08 s  ClockTime = 3 s

Time = 39.65

Courant Number mean: 0.0796324 max: 0.502797
smoothSolver:  Solving for Ux, Initial residual = 1.17872e-05, Final residual = 2.08819e-08, No Iterations 1
smoothSolver:  Solving for Uy, Initial residual = 9.37599e-06, Final residual = 9.37599e-06, No Iterations 0
DICPCG:  Solving for p, Initial residual = 2.03892e-05, Final residual = 9.22417e-07, No Iterations 24
DICPCG:  Solving for p, Initial residual = 1.1221e-05, Final residual = 9.41805e-07, No Iterations 2
DICPCG:  Solving for p, Initial residual = 1.45492e-06, Final residual = 6.73958e-07, No Iterations 1
time step continuity errors : sum local = 3.84791e-10, global = 1.25212e-10, cumulative = -2.02544e-07
DICPCG:  Solving for p, Initial residual = 1.83147e-05, Final residual = 8.73367e-07, No Iterations 18
DICPCG:  Solving for p, Initial residual = 1.08066e-05, Final residual = 8.35225e-07, No Iterations 2
DICPCG:  Solving for p, Initial residual = 1.34105e-06, Final residual = 6.02052e-07, No Iterations 1
time step continuity errors : sum local = 3.43734e-10, global = 1.15767e-10, cumulative = -2.02429e-07
ExecutionTime = 3.09 s  ClockTime = 3 s

Time = 39.7

Courant Number mean: 0.0796323 max: 0.502797
smoothSolver:  Solving for Ux, Initial residual = 1.17176e-05, Final residual = 2.07689e-08, No Iterations 1
smoothSolver:  Solving for Uy, Initial residual = 9.31292e-06, Final residual = 9.31292e-06, No Iterations 0
DICPCG:  Solving for p, Initial residual = 2.02857e-05, Final residual = 9.33899e-07, No Iterations 18
DICPCG:  Solving for p, Initial residual = 1.10924e-05, Final residual = 8.9003e-07, No Iterations 2
DICPCG:  Solving for p, Initial residual = 1.41149e-06, Final residual = 6.23858e-07, No Iterations 1
time step continuity errors : sum local = 3.56185e-10, global = 6.50339e-11, cumulative = -2.02364e-07
DICPCG:  Solving for p, Initial residual = 1.82193e-05, Final residual = 8.63372e-07, No Iterations 18
DICPCG:  Solving for p, Initial residual = 1.06078e-05, Final residual = 8.52212e-07, No Iterations 2
DICPCG:  Solving for p, Initial residual = 1.3671e-06, Final residual = 6.07967e-07, No Iterations 1
time step continuity errors : sum local = 3.4711e-10, global = 8.8428e-11, cumulative = -2.02275e-07
ExecutionTime = 3.09 s  ClockTime = 3 s

Time = 39.75

Courant Number mean: 0.0796323 max: 0.502797
smoothSolver:  Solving for Ux, Initial residual = 1.16485e-05, Final residual = 2.06586e-08, No Iterations 1
smoothSolver:  Solving for Uy, Initial residual = 9.25031e-06, Final residual = 9.25031e-06, No Iterations 0
DICPCG:  Solving for p, Initial residual = 2.02737e-05, Final residual = 1.00655e-06, No Iterations 17
DICPCG:  Solving for p, Initial residual = 1.08499e-05, Final residual = 9.6194e-07, No Iterations 2
DICPCG:  Solving for p, Initial residual = 1.47307e-06, Final residual = 7.08737e-07, No Iterations 1
time step continuity errors : sum local = 4.04645e-10, global = -6.24606e-12, cumulative = -2.02281e-07
DICPCG:  Solving for p, Initial residual = 1.80912e-05, Final residual = 9.44717e-07, No Iterations 17
DICPCG:  Solving for p, Initial residual = 1.03615e-05, Final residual = 8.9197e-07, No Iterations 2
DICPCG:  Solving for p, Initial residual = 1.3912e-06, Final residual = 6.69649e-07, No Iterations 1
time step continuity errors : sum local = 3.82326e-10, global = 3.31202e-11, cumulative = -2.02248e-07
ExecutionTime = 3.09 s  ClockTime = 3 s

Time = 39.8

Courant Number mean: 0.0796322 max: 0.502798
smoothSolver:  Solving for Ux, Initial residual = 1.15787e-05, Final residual = 2.05362e-08, No Iterations 1
smoothSolver:  Solving for Uy, Initial residual = 9.18706e-06, Final residual = 9.18706e-06, No Iterations 0
DICPCG:  Solving for p, Initial residual = 2.0137e-05, Final residual = 8.32297e-07, No Iterations 18
DICPCG:  Solving for p, Initial residual = 1.07185e-05, Final residual = 8.51829e-07, No Iterations 2
DICPCG:  Solving for p, Initial residual = 1.37622e-06, Final residual = 5.99911e-07, No Iterations 1
time step continuity errors : sum local = 3.42512e-10, global = -7.43572e-11, cumulative = -2.02323e-07
DICPCG:  Solving for p, Initial residual = 1.80061e-05, Final residual = 9.98662e-07, No Iterations 17
DICPCG:  Solving for p, Initial residual = 1.04088e-05, Final residual = 9.09154e-07, No Iterations 2
DICPCG:  Solving for p, Initial residual = 1.40077e-06, Final residual = 6.84489e-07, No Iterations 1
time step continuity errors : sum local = 3.90799e-10, global = -3.65594e-11, cumulative = -2.02359e-07
ExecutionTime = 3.09 s  ClockTime = 3 s

Time = 39.85

Courant Number mean: 0.0796322 max: 0.502798
smoothSolver:  Solving for Ux, Initial residual = 1.15132e-05, Final residual = 2.04282e-08, No Iterations 1
smoothSolver:  Solving for Uy, Initial residual = 9.12242e-06, Final residual = 9.12242e-06, No Iterations 0
DICPCG:  Solving for p, Initial residual = 2.00515e-05, Final residual = 1.0025e-06, No Iterations 18
DICPCG:  Solving for p, Initial residual = 1.08584e-05, Final residual = 9.08887e-07, No Iterations 2
DICPCG:  Solving for p, Initial residual = 1.43291e-06, Final residual = 6.70839e-07, No Iterations 1
time step continuity errors : sum local = 3.83009e-10, global = -1.36732e-10, cumulative = -2.02496e-07
DICPCG:  Solving for p, Initial residual = 1.79193e-05, Final residual = 9.81827e-07, No Iterations 23
DICPCG:  Solving for p, Initial residual = 1.0557e-05, Final residual = 8.90002e-07, No Iterations 2
DICPCG:  Solving for p, Initial residual = 1.37979e-06, Final residual = 6.00195e-07, No Iterations 1
time step continuity errors : sum local = 3.42674e-10, global = -1.17188e-10, cumulative = -2.02613e-07
ExecutionTime = 3.1 s  ClockTime = 3 s

Time = 39.9

Courant Number mean: 0.0796321 max: 0.502798
smoothSolver:  Solving for Ux, Initial residual = 1.14524e-05, Final residual = 2.03192e-08, No Iterations 1
smoothSolver:  Solving for Uy, Initial residual = 9.05767e-06, Final residual = 9.05767e-06, No Iterations 0
DICPCG:  Solving for p, Initial residual = 2.00622e-05, Final residual = 9.71011e-07, No Iterations 18
DICPCG:  Solving for p, Initial residual = 1.1421e-05, Final residual = 9.00228e-07, No Iterations 2
DICPCG:  Solving for p, Initial residual = 1.40992e-06, Final residual = 6.76164e-07, No Iterations 1
time step continuity errors : sum local = 3.86051e-10, global = -1.6936e-10, cumulative = -2.02782e-07
DICPCG:  Solving for p, Initial residual = 1.7764e-05, Final residual = 9.06758e-07, No Iterations 46
DICPCG:  Solving for p, Initial residual = 1.175e-05, Final residual = 8.52682e-07, No Iterations 2
DICPCG:  Solving for p, Initial residual = 1.37924e-06, Final residual = 5.28194e-07, No Iterations 1
time step continuity errors : sum local = 3.01579e-10, global = -1.97347e-11, cumulative = -2.02802e-07
ExecutionTime = 3.1 s  ClockTime = 3 s

Time = 39.95

Courant Number mean: 0.0796321 max: 0.502798
smoothSolver:  Solving for Ux, Initial residual = 1.13837e-05, Final residual = 2.01404e-08, No Iterations 1
smoothSolver:  Solving for Uy, Initial residual = 8.99087e-06, Final residual = 8.99087e-06, No Iterations 0
DICPCG:  Solving for p, Initial residual = 1.98937e-05, Final residual = 9.07492e-07, No Iterations 24
DICPCG:  Solving for p, Initial residual = 1.09353e-05, Final residual = 9.12988e-07, No Iterations 2
DICPCG:  Solving for p, Initial residual = 1.3888e-06, Final residual = 6.5264e-07, No Iterations 1
time step continuity errors : sum local = 3.72634e-10, global = 8.8067e-11, cumulative = -2.02714e-07
DICPCG:  Solving for p, Initial residual = 1.76671e-05, Final residual = 9.86739e-07, No Iterations 17
DICPCG:  Solving for p, Initial residual = 1.03732e-05, Final residual = 8.66078e-07, No Iterations 2
DICPCG:  Solving for p, Initial residual = 1.34564e-06, Final residual = 6.54113e-07, No Iterations 1
time step continuity errors : sum local = 3.73472e-10, global = 9.17993e-11, cumulative = -2.02622e-07
ExecutionTime = 3.1 s  ClockTime = 3 s

Time = 40

Courant Number mean: 0.079632 max: 0.502799
smoothSolver:  Solving for Ux, Initial residual = 1.13147e-05, Final residual = 2.00536e-08, No Iterations 1
smoothSolver:  Solving for Uy, Initial residual = 8.92716e-06, Final residual = 8.92716e-06, No Iterations 0
DICPCG:  Solving for p, Initial residual = 1.97407e-05, Final residual = 9.84795e-07, No Iterations 25
DICPCG:  Solving for p, Initial residual = 1.09175e-05, Final residual = 9.60757e-07, No Iterations 2
DICPCG:  Solving for p, Initial residual = 1.45791e-06, Final residual = 7.1513e-07, No Iterations 1
time step continuity errors : sum local = 4.08311e-10, global = 1.49428e-10, cumulative = -2.02473e-07
DICPCG:  Solving for p, Initial residual = 1.75388e-05, Final residual = 8.86184e-07, No Iterations 18
DICPCG:  Solving for p, Initial residual = 1.04785e-05, Final residual = 8.16967e-07, No Iterations 2
DICPCG:  Solving for p, Initial residual = 1.30169e-06, Final residual = 5.98462e-07, No Iterations 1
time step continuity errors : sum local = 3.41695e-10, global = 1.2761e-10, cumulative = -2.02345e-07
ExecutionTime = 3.12 s  ClockTime = 3 s

End

